Coordinates from ORCA-job PhN2+~CF3COO-_B3LYPG-6-31G_dp-CH-Scan-d09-49-n800
 OpenBabel11261919373D

 20 19  0  0  0  0  0  0  0  0999 V2000
   -1.4589    0.1603   -0.1444 C   0  0  0  0  0  0  0  0  0  0  0  0
   -2.8448    0.2120   -0.2874 N   0  0  0  0  0  0  0  0  0  0  0  0
   -3.9545    0.3139   -0.3895 N   0  0  0  0  0  0  0  0  0  0  0  0
   -0.8823    1.4313    0.0077 C   0  0  0  0  0  0  0  0  0  0  0  0
    0.5286    1.2897    0.1478 C   0  0  0  0  0  0  0  0  0  0  0  0
    1.1929    0.0675    0.1326 C   0  0  0  0  0  0  0  0  0  0  0  0
    0.4967   -1.1565   -0.0295 C   0  0  0  0  0  0  0  0  0  0  0  0
   -0.8720   -1.1346   -0.1745 C   0  0  0  0  0  0  0  0  0  0  0  0
   -3.0969    4.4743    0.0200 H   0  0  0  0  0  0  0  0  0  0  0  0
    1.1352    2.1874    0.2763 H   0  0  0  0  0  0  0  0  0  0  0  0
    2.2754    0.0349    0.2482 H   0  0  0  0  0  0  0  0  0  0  0  0
    1.0359   -2.0983   -0.0392 H   0  0  0  0  0  0  0  0  0  0  0  0
   -1.4598   -2.0397   -0.3028 H   0  0  0  0  0  0  0  0  0  0  0  0
   -4.9980    3.1159   -0.2994 O   0  0  0  0  0  0  0  0  0  0  0  0
   -4.9576    4.3151   -0.1933 C   0  0  0  0  0  0  0  0  0  0  0  0
   -3.8687    5.0658   -0.0134 O   0  0  0  0  0  0  0  0  0  0  0  0
   -6.2122    5.2139   -0.2462 C   0  0  0  0  0  0  0  0  0  0  0  0
   -6.1003    6.1154   -1.2373 F   0  0  0  0  0  0  0  0  0  0  0  0
   -7.3022    4.4743   -0.4588 F   0  0  0  0  0  0  0  0  0  0  0  0
   -6.3580    5.8761    0.9149 F   0  0  0  0  0  0  0  0  0  0  0  0
  1  4  1  0  0  0  0
  2  1  1  0  0  0  0
  3  2  1  0  0  0  0
  4  5  2  0  0  0  0
  5 10  1  0  0  0  0
  6  5  1  0  0  0  0
  6 11  1  0  0  0  0
  7  6  2  0  0  0  0
  8  1  2  0  0  0  0
  8  7  1  0  0  0  0
 12  7  1  0  0  0  0
 13  8  1  0  0  0  0
 14 15  2  0  0  0  0
 15 16  1  0  0  0  0
 16  9  1  0  0  0  0
 17 15  1  0  0  0  0
 17 20  1  0  0  0  0
 18 17  1  0  0  0  0
 19 17  1  0  0  0  0
M  RAD  3   2   2   3   3   4   2
M  END
