Coordinates from ORCA-job PhN2+~CF3COO-_B3LYPG-6-31G_dp-CH-Scan-d09-49-n800
 OpenBabel11261919373D

 20 19  0  0  0  0  0  0  0  0999 V2000
   -1.6281    0.2156   -0.1555 C   0  0  0  0  0  0  0  0  0  0  0  0
   -3.0107    0.1562   -0.3057 N   0  0  0  0  0  0  0  0  0  0  0  0
   -4.1232    0.1601   -0.4188 N   0  0  0  0  0  0  0  0  0  0  0  0
   -1.1388    1.5229    0.0036 C   0  0  0  0  0  0  0  0  0  0  0  0
    0.2753    1.4886    0.1515 C   0  0  0  0  0  0  0  0  0  0  0  0
    1.0275    0.3178    0.1367 C   0  0  0  0  0  0  0  0  0  0  0  0
    0.4234   -0.9519   -0.0322 C   0  0  0  0  0  0  0  0  0  0  0  0
   -0.9428   -1.0297   -0.1846 C   0  0  0  0  0  0  0  0  0  0  0  0
   -2.9457    3.9210    0.0018 H   0  0  0  0  0  0  0  0  0  0  0  0
    0.8114    2.4284    0.2860 H   0  0  0  0  0  0  0  0  0  0  0  0
    2.1086    0.3652    0.2584 H   0  0  0  0  0  0  0  0  0  0  0  0
    1.0289   -1.8524   -0.0411 H   0  0  0  0  0  0  0  0  0  0  0  0
   -1.4610   -1.9754   -0.3183 H   0  0  0  0  0  0  0  0  0  0  0  0
   -5.0535    2.8852   -0.3171 O   0  0  0  0  0  0  0  0  0  0  0  0
   -4.8141    4.0610   -0.1924 C   0  0  0  0  0  0  0  0  0  0  0  0
   -3.6234    4.6245   -0.0134 O   0  0  0  0  0  0  0  0  0  0  0  0
   -5.9124    5.1468   -0.2247 C   0  0  0  0  0  0  0  0  0  0  0  0
   -5.6901    6.0068   -1.2345 F   0  0  0  0  0  0  0  0  0  0  0  0
   -7.1129    4.5876   -0.3952 F   0  0  0  0  0  0  0  0  0  0  0  0
   -5.9199    5.8405    0.9274 F   0  0  0  0  0  0  0  0  0  0  0  0
  1  4  1  0  0  0  0
  2  1  1  0  0  0  0
  3  2  1  0  0  0  0
  4  5  2  0  0  0  0
  5 10  1  0  0  0  0
  6  5  1  0  0  0  0
  6 11  1  0  0  0  0
  7  6  2  0  0  0  0
  8  1  2  0  0  0  0
  8  7  1  0  0  0  0
 12  7  1  0  0  0  0
 13  8  1  0  0  0  0
 14 15  2  0  0  0  0
 15 16  1  0  0  0  0
 16  9  1  0  0  0  0
 17 15  1  0  0  0  0
 17 20  1  0  0  0  0
 18 17  1  0  0  0  0
 19 17  1  0  0  0  0
M  RAD  3   2   2   3   3   4   2
M  END
