Coordinates from ORCA-job PhN2+~CF3COO-_B3LYPG-6-31G_dp-CH-Scan-d09-49-n800
 OpenBabel11261919373D

 20 19  0  0  0  0  0  0  0  0999 V2000
   -1.3489    0.1403   -0.1445 C   0  0  0  0  0  0  0  0  0  0  0  0
   -2.7298    0.2747   -0.2893 N   0  0  0  0  0  0  0  0  0  0  0  0
   -3.8303    0.4474   -0.3986 N   0  0  0  0  0  0  0  0  0  0  0  0
   -0.7050    1.3765    0.0203 C   0  0  0  0  0  0  0  0  0  0  0  0
    0.6959    1.1538    0.1641 C   0  0  0  0  0  0  0  0  0  0  0  0
    1.2907   -0.1034    0.1407 C   0  0  0  0  0  0  0  0  0  0  0  0
    0.5277   -1.2854   -0.0347 C   0  0  0  0  0  0  0  0  0  0  0  0
   -0.8370   -1.1859   -0.1844 C   0  0  0  0  0  0  0  0  0  0  0  0
   -3.2140    4.8677    0.0305 H   0  0  0  0  0  0  0  0  0  0  0  0
    1.3517    2.0148    0.3030 H   0  0  0  0  0  0  0  0  0  0  0  0
    2.3693   -0.1981    0.2601 H   0  0  0  0  0  0  0  0  0  0  0  0
    1.0138   -2.2558   -0.0508 H   0  0  0  0  0  0  0  0  0  0  0  0
   -1.4741   -2.0553   -0.3230 H   0  0  0  0  0  0  0  0  0  0  0  0
   -4.9327    3.2907   -0.2788 O   0  0  0  0  0  0  0  0  0  0  0  0
   -5.0408    4.4860   -0.1848 C   0  0  0  0  0  0  0  0  0  0  0  0
   -4.0492    5.3648   -0.0096 O   0  0  0  0  0  0  0  0  0  0  0  0
   -6.3939    5.2265   -0.2559 C   0  0  0  0  0  0  0  0  0  0  0  0
   -6.4009    6.0833   -1.2920 F   0  0  0  0  0  0  0  0  0  0  0  0
   -7.3895    4.3524   -0.4141 F   0  0  0  0  0  0  0  0  0  0  0  0
   -6.6045    5.9241    0.8735 F   0  0  0  0  0  0  0  0  0  0  0  0
  1  4  1  0  0  0  0
  2  1  1  0  0  0  0
  3  2  1  0  0  0  0
  4  5  2  0  0  0  0
  5 10  1  0  0  0  0
  6  5  1  0  0  0  0
  6 11  1  0  0  0  0
  7  6  2  0  0  0  0
  8  1  2  0  0  0  0
  8  7  1  0  0  0  0
 12  7  1  0  0  0  0
 13  8  1  0  0  0  0
 14 15  2  0  0  0  0
 15 16  1  0  0  0  0
 16  9  1  0  0  0  0
 17 15  1  0  0  0  0
 17 20  1  0  0  0  0
 18 17  1  0  0  0  0
 19 17  1  0  0  0  0
M  RAD  3   2   2   3   3   4   2
M  END
