Coordinates from ORCA-job PhN2+~CF3COO-_B3LYPG-6-31G_dp-CH-Scan-d09-49-n800
 OpenBabel11261919373D

 20 19  0  0  0  0  0  0  0  0999 V2000
   -1.3711    0.1434   -0.1362 C   0  0  0  0  0  0  0  0  0  0  0  0
   -2.7543    0.2617   -0.2720 N   0  0  0  0  0  0  0  0  0  0  0  0
   -3.8575    0.4210   -0.3738 N   0  0  0  0  0  0  0  0  0  0  0  0
   -0.7403    1.3862    0.0307 C   0  0  0  0  0  0  0  0  0  0  0  0
    0.6638    1.1792    0.1650 C   0  0  0  0  0  0  0  0  0  0  0  0
    1.2730   -0.0709    0.1318 C   0  0  0  0  0  0  0  0  0  0  0  0
    0.5227   -1.2608   -0.0447 C   0  0  0  0  0  0  0  0  0  0  0  0
   -0.8439   -1.1764   -0.1854 C   0  0  0  0  0  0  0  0  0  0  0  0
   -3.1905    4.7963    0.0485 H   0  0  0  0  0  0  0  0  0  0  0  0
    1.3105    2.0470    0.3041 H   0  0  0  0  0  0  0  0  0  0  0  0
    2.3534   -0.1536    0.2440 H   0  0  0  0  0  0  0  0  0  0  0  0
    1.0199   -2.2254   -0.0685 H   0  0  0  0  0  0  0  0  0  0  0  0
   -1.4718   -2.0525   -0.3242 H   0  0  0  0  0  0  0  0  0  0  0  0
   -4.9412    3.2567   -0.2757 O   0  0  0  0  0  0  0  0  0  0  0  0
   -5.0235    4.4541   -0.1823 C   0  0  0  0  0  0  0  0  0  0  0  0
   -4.0147    5.3109    0.0014 O   0  0  0  0  0  0  0  0  0  0  0  0
   -6.3596    5.2238   -0.2642 C   0  0  0  0  0  0  0  0  0  0  0  0
   -6.3389    6.0826   -1.2985 F   0  0  0  0  0  0  0  0  0  0  0  0
   -7.3723    4.3718   -0.4330 F   0  0  0  0  0  0  0  0  0  0  0  0
   -6.5652    5.9237    0.8647 F   0  0  0  0  0  0  0  0  0  0  0  0
  1  4  1  0  0  0  0
  2  1  1  0  0  0  0
  3  2  1  0  0  0  0
  4  5  2  0  0  0  0
  5 10  1  0  0  0  0
  6  5  1  0  0  0  0
  6 11  1  0  0  0  0
  7  6  2  0  0  0  0
  8  1  2  0  0  0  0
  8  7  1  0  0  0  0
 12  7  1  0  0  0  0
 13  8  1  0  0  0  0
 14 15  2  0  0  0  0
 15 16  1  0  0  0  0
 16  9  1  0  0  0  0
 17 15  1  0  0  0  0
 17 20  1  0  0  0  0
 18 17  1  0  0  0  0
 19 17  1  0  0  0  0
M  RAD  3   2   2   3   3   4   2
M  END
