Coordinates from ORCA-job PhN2+~CF3COO-_B3LYPG-6-31G_dp-CH-Scan-d09-49-n800
 OpenBabel11261919373D

 20 19  0  0  0  0  0  0  0  0999 V2000
   -1.6318    0.2169   -0.1544 C   0  0  0  0  0  0  0  0  0  0  0  0
   -3.0144    0.1554   -0.3034 N   0  0  0  0  0  0  0  0  0  0  0  0
   -4.1266    0.1573   -0.4186 N   0  0  0  0  0  0  0  0  0  0  0  0
   -1.1441    1.5247    0.0051 C   0  0  0  0  0  0  0  0  0  0  0  0
    0.2700    1.4926    0.1520 C   0  0  0  0  0  0  0  0  0  0  0  0
    1.0241    0.3230    0.1359 C   0  0  0  0  0  0  0  0  0  0  0  0
    0.4218   -0.9475   -0.0334 C   0  0  0  0  0  0  0  0  0  0  0  0
   -0.9444   -1.0273   -0.1849 C   0  0  0  0  0  0  0  0  0  0  0  0
   -2.9433    3.9097    0.0034 H   0  0  0  0  0  0  0  0  0  0  0  0
    0.8047    2.4332    0.2869 H   0  0  0  0  0  0  0  0  0  0  0  0
    2.1052    0.3720    0.2567 H   0  0  0  0  0  0  0  0  0  0  0  0
    1.0287   -1.8470   -0.0434 H   0  0  0  0  0  0  0  0  0  0  0  0
   -1.4613   -1.9737   -0.3188 H   0  0  0  0  0  0  0  0  0  0  0  0
   -5.0547    2.8805   -0.3174 O   0  0  0  0  0  0  0  0  0  0  0  0
   -4.8110    4.0556   -0.1920 C   0  0  0  0  0  0  0  0  0  0  0  0
   -3.6189    4.6152   -0.0115 O   0  0  0  0  0  0  0  0  0  0  0  0
   -5.9057    5.1451   -0.2253 C   0  0  0  0  0  0  0  0  0  0  0  0
   -5.6802    6.0037   -1.2355 F   0  0  0  0  0  0  0  0  0  0  0  0
   -7.1081    4.5898   -0.3959 F   0  0  0  0  0  0  0  0  0  0  0  0
   -5.9114    5.8396    0.9264 F   0  0  0  0  0  0  0  0  0  0  0  0
  1  4  1  0  0  0  0
  2  1  1  0  0  0  0
  3  2  1  0  0  0  0
  4  5  2  0  0  0  0
  5 10  1  0  0  0  0
  6  5  1  0  0  0  0
  6 11  1  0  0  0  0
  7  6  2  0  0  0  0
  8  1  2  0  0  0  0
  8  7  1  0  0  0  0
 12  7  1  0  0  0  0
 13  8  1  0  0  0  0
 14 15  2  0  0  0  0
 15 16  1  0  0  0  0
 16  9  1  0  0  0  0
 17 15  1  0  0  0  0
 17 20  1  0  0  0  0
 18 17  1  0  0  0  0
 19 17  1  0  0  0  0
M  RAD  3   2   2   3   3   4   2
M  END
