Coordinates from ORCA-job PhN2+~CF3COO-_B3LYPG-6-31G_dp-CH-Scan-d09-49-n800
 OpenBabel11261919373D

 20 19  0  0  0  0  0  0  0  0999 V2000
   -1.3182    0.7224   -1.2202 C   0  0  0  0  0  0  0  0  0  0  0  0
   -2.1937    0.8382   -2.2995 N   0  0  0  0  0  0  0  0  0  0  0  0
   -2.8273    0.9496   -3.2149 N   0  0  0  0  0  0  0  0  0  0  0  0
    0.0058    0.9926   -1.5960 C   0  0  0  0  0  0  0  0  0  0  0  0
    0.8497    0.8464   -0.4556 C   0  0  0  0  0  0  0  0  0  0  0  0
    0.3926    0.4811    0.8067 C   0  0  0  0  0  0  0  0  0  0  0  0
   -0.9808    0.2340    1.0602 C   0  0  0  0  0  0  0  0  0  0  0  0
   -1.8861    0.3548    0.0299 C   0  0  0  0  0  0  0  0  0  0  0  0
   -2.8344    4.7031   -0.6388 H   0  0  0  0  0  0  0  0  0  0  0  0
    1.9200    1.0273   -0.5686 H   0  0  0  0  0  0  0  0  0  0  0  0
    1.0960    0.3794    1.6322 H   0  0  0  0  0  0  0  0  0  0  0  0
   -1.3132   -0.0463    2.0546 H   0  0  0  0  0  0  0  0  0  0  0  0
   -2.9521    0.1914    0.1598 H   0  0  0  0  0  0  0  0  0  0  0  0
   -4.0478    2.7034   -0.8750 O   0  0  0  0  0  0  0  0  0  0  0  0
   -4.3398    3.6645   -0.2086 C   0  0  0  0  0  0  0  0  0  0  0  0
   -3.6362    4.7933   -0.0950 O   0  0  0  0  0  0  0  0  0  0  0  0
   -5.6221    3.7490    0.6478 C   0  0  0  0  0  0  0  0  0  0  0  0
   -6.4057    4.7473    0.2080 F   0  0  0  0  0  0  0  0  0  0  0  0
   -6.2992    2.6019    0.5724 F   0  0  0  0  0  0  0  0  0  0  0  0
   -5.3091    3.9855    1.9323 F   0  0  0  0  0  0  0  0  0  0  0  0
  1  8  1  0  0  0  0
  2  1  1  0  0  0  0
  3  2  1  0  0  0  0
  4  1  2  0  0  0  0
  4  5  1  0  0  0  0
  5  6  2  0  0  0  0
  6  7  1  0  0  0  0
  6 11  1  0  0  0  0
  7 12  1  0  0  0  0
  8 13  1  0  0  0  0
  8  7  2  0  0  0  0
  9 16  1  0  0  0  0
 10  5  1  0  0  0  0
 14 15  2  0  0  0  0
 15 16  1  0  0  0  0
 15 17  1  0  0  0  0
 17 20  1  0  0  0  0
 18 17  1  0  0  0  0
 19 17  1  0  0  0  0
M  RAD  3   2   2   3   3   4   2
M  END
