Coordinates from ORCA-job PhN2+~CF3COO-_B3LYPG-6-31G_dp-CH-Scan-d09-49-n800
 OpenBabel11261919373D

 20 19  0  0  0  0  0  0  0  0999 V2000
   -1.4332    0.1540   -0.1400 C   0  0  0  0  0  0  0  0  0  0  0  0
   -2.8191    0.2245   -0.2783 N   0  0  0  0  0  0  0  0  0  0  0  0
   -3.9268    0.3436   -0.3841 N   0  0  0  0  0  0  0  0  0  0  0  0
   -0.8413    1.4176    0.0141 C   0  0  0  0  0  0  0  0  0  0  0  0
    0.5683    1.2578    0.1504 C   0  0  0  0  0  0  0  0  0  0  0  0
    1.2173    0.0275    0.1298 C   0  0  0  0  0  0  0  0  0  0  0  0
    0.5056   -1.1874   -0.0342 C   0  0  0  0  0  0  0  0  0  0  0  0
   -0.8631   -1.1482   -0.1755 C   0  0  0  0  0  0  0  0  0  0  0  0
   -3.1237    4.5660    0.0348 H   0  0  0  0  0  0  0  0  0  0  0  0
    1.1864    2.1474    0.2804 H   0  0  0  0  0  0  0  0  0  0  0  0
    2.2997   -0.0190    0.2425 H   0  0  0  0  0  0  0  0  0  0  0  0
    1.0333   -2.1357   -0.0480 H   0  0  0  0  0  0  0  0  0  0  0  0
   -1.4624   -2.0455   -0.3050 H   0  0  0  0  0  0  0  0  0  0  0  0
   -4.9832    3.1558   -0.2938 O   0  0  0  0  0  0  0  0  0  0  0  0
   -4.9778    4.3556   -0.1893 C   0  0  0  0  0  0  0  0  0  0  0  0
   -3.9109    5.1365   -0.0031 O   0  0  0  0  0  0  0  0  0  0  0  0
   -6.2563    5.2192   -0.2536 C   0  0  0  0  0  0  0  0  0  0  0  0
   -6.1666    6.1122   -1.2545 F   0  0  0  0  0  0  0  0  0  0  0  0
   -7.3248    4.4474   -0.4604 F   0  0  0  0  0  0  0  0  0  0  0  0
   -6.4229    5.8897    0.8997 F   0  0  0  0  0  0  0  0  0  0  0  0
  1  4  1  0  0  0  0
  2  1  1  0  0  0  0
  3  2  1  0  0  0  0
  4  5  2  0  0  0  0
  5 10  1  0  0  0  0
  6  5  1  0  0  0  0
  6 11  1  0  0  0  0
  7  6  2  0  0  0  0
  8  1  2  0  0  0  0
  8  7  1  0  0  0  0
 12  7  1  0  0  0  0
 13  8  1  0  0  0  0
 14 15  2  0  0  0  0
 15 16  1  0  0  0  0
 16  9  1  0  0  0  0
 17 15  1  0  0  0  0
 17 20  1  0  0  0  0
 18 17  1  0  0  0  0
 19 17  1  0  0  0  0
M  RAD  3   2   2   3   3   4   2
M  END
