Coordinates from ORCA-job PhN2+~CF3COO-_B3LYPG-6-31G_dp-CH-Scan-d09-49-n800
 OpenBabel11261919373D

 20 19  0  0  0  0  0  0  0  0999 V2000
   -1.2482    0.1326   -0.2268 C   0  0  0  0  0  0  0  0  0  0  0  0
   -2.6095    0.3337   -0.4582 N   0  0  0  0  0  0  0  0  0  0  0  0
   -3.6895    0.5637   -0.6424 N   0  0  0  0  0  0  0  0  0  0  0  0
   -0.5485    1.3408   -0.0890 C   0  0  0  0  0  0  0  0  0  0  0  0
    0.8284    1.0544    0.1471 C   0  0  0  0  0  0  0  0  0  0  0  0
    1.3533   -0.2314    0.2246 C   0  0  0  0  0  0  0  0  0  0  0  0
    0.5374   -1.3802    0.0662 C   0  0  0  0  0  0  0  0  0  0  0  0
   -0.8092   -1.2187   -0.1687 C   0  0  0  0  0  0  0  0  0  0  0  0
   -3.3186    5.1179   -0.1715 H   0  0  0  0  0  0  0  0  0  0  0  0
    1.5216    1.8867    0.2786 H   0  0  0  0  0  0  0  0  0  0  0  0
    2.4165   -0.3754    0.4123 H   0  0  0  0  0  0  0  0  0  0  0  0
    0.9698   -2.3737    0.1296 H   0  0  0  0  0  0  0  0  0  0  0  0
   -1.4843   -2.0602   -0.3001 H   0  0  0  0  0  0  0  0  0  0  0  0
   -4.9353    3.4203   -0.3425 O   0  0  0  0  0  0  0  0  0  0  0  0
   -5.1239    4.6032   -0.2248 C   0  0  0  0  0  0  0  0  0  0  0  0
   -4.1876    5.5532   -0.1305 O   0  0  0  0  0  0  0  0  0  0  0  0
   -6.5285    5.2410   -0.1588 C   0  0  0  0  0  0  0  0  0  0  0  0
   -6.6828    6.1348   -1.1508 F   0  0  0  0  0  0  0  0  0  0  0  0
   -7.4674    4.3005   -0.2771 F   0  0  0  0  0  0  0  0  0  0  0  0
   -6.6954    5.8758    1.0144 F   0  0  0  0  0  0  0  0  0  0  0  0
  1  8  2  0  0  0  0
  1  4  1  0  0  0  0
  2  1  1  0  0  0  0
  3  2  1  0  0  0  0
  4  5  2  0  0  0  0
  5  6  1  0  0  0  0
  5 10  1  0  0  0  0
  6 11  1  0  0  0  0
  7 12  1  0  0  0  0
  7  6  2  0  0  0  0
  8  7  1  0  0  0  0
  9 16  1  0  0  0  0
 13  8  1  0  0  0  0
 14 15  2  0  0  0  0
 15 17  1  0  0  0  0
 15 16  1  0  0  0  0
 17 20  1  0  0  0  0
 18 17  1  0  0  0  0
 19 17  1  0  0  0  0
M  RAD  3   2   2   3   3   4   2
M  END
