Coordinates from ORCA-job PhN2+~CF3COO-_B3LYPG-6-31G_dp-CH-Scan-d09-49-n800
 OpenBabel11261919373D

 20 19  0  0  0  0  0  0  0  0999 V2000
   -1.5004    0.1724   -0.1477 C   0  0  0  0  0  0  0  0  0  0  0  0
   -2.8863    0.1957   -0.2926 N   0  0  0  0  0  0  0  0  0  0  0  0
   -3.9971    0.2727   -0.4025 N   0  0  0  0  0  0  0  0  0  0  0  0
   -0.9459    1.4539    0.0018 C   0  0  0  0  0  0  0  0  0  0  0  0
    0.4667    1.3392    0.1444 C   0  0  0  0  0  0  0  0  0  0  0  0
    1.1534    0.1293    0.1335 C   0  0  0  0  0  0  0  0  0  0  0  0
    0.4801   -1.1074   -0.0262 C   0  0  0  0  0  0  0  0  0  0  0  0
   -0.8886   -1.1110   -0.1732 C   0  0  0  0  0  0  0  0  0  0  0  0
   -3.0558    4.3378    0.0111 H   0  0  0  0  0  0  0  0  0  0  0  0
    1.0561    2.2483    0.2716 H   0  0  0  0  0  0  0  0  0  0  0  0
    2.2361    0.1172    0.2508 H   0  0  0  0  0  0  0  0  0  0  0  0
    1.0363   -2.0393   -0.0324 H   0  0  0  0  0  0  0  0  0  0  0  0
   -1.4593   -2.0272   -0.2997 H   0  0  0  0  0  0  0  0  0  0  0  0
   -5.0123    3.0564   -0.3065 O   0  0  0  0  0  0  0  0  0  0  0  0
   -4.9227    4.2527   -0.1953 C   0  0  0  0  0  0  0  0  0  0  0  0
   -3.8051    4.9585   -0.0166 O   0  0  0  0  0  0  0  0  0  0  0  0
   -6.1412    5.2004   -0.2388 C   0  0  0  0  0  0  0  0  0  0  0  0
   -5.9973    6.1036   -1.2242 F   0  0  0  0  0  0  0  0  0  0  0  0
   -7.2604    4.5058   -0.4527 F   0  0  0  0  0  0  0  0  0  0  0  0
   -6.2578    5.8601    0.9271 F   0  0  0  0  0  0  0  0  0  0  0  0
  1  4  1  0  0  0  0
  2  1  1  0  0  0  0
  3  2  1  0  0  0  0
  4  5  2  0  0  0  0
  5 10  1  0  0  0  0
  6  5  1  0  0  0  0
  6 11  1  0  0  0  0
  7  6  2  0  0  0  0
  8  1  2  0  0  0  0
  8  7  1  0  0  0  0
 12  7  1  0  0  0  0
 13  8  1  0  0  0  0
 14 15  2  0  0  0  0
 15 16  1  0  0  0  0
 16  9  1  0  0  0  0
 17 15  1  0  0  0  0
 17 20  1  0  0  0  0
 18 17  1  0  0  0  0
 19 17  1  0  0  0  0
M  RAD  3   2   2   3   3   4   2
M  END
