Coordinates from ORCA-job PhN2+~CF3COO-_B3LYPG-6-31G_dp-CH-Scan-d09-49-n800
 OpenBabel11261919373D

 20 19  0  0  0  0  0  0  0  0999 V2000
   -1.7483    0.2555   -0.1598 C   0  0  0  0  0  0  0  0  0  0  0  0
   -3.1244    0.1212   -0.3096 N   0  0  0  0  0  0  0  0  0  0  0  0
   -4.2343    0.0636   -0.4260 N   0  0  0  0  0  0  0  0  0  0  0  0
   -1.3184    1.5844   -0.0047 C   0  0  0  0  0  0  0  0  0  0  0  0
    0.0933    1.6254    0.1430 C   0  0  0  0  0  0  0  0  0  0  0  0
    0.9037    0.4936    0.1316 C   0  0  0  0  0  0  0  0  0  0  0  0
    0.3635   -0.8040   -0.0325 C   0  0  0  0  0  0  0  0  0  0  0  0
   -0.9975   -0.9508   -0.1842 C   0  0  0  0  0  0  0  0  0  0  0  0
   -2.8523    3.5547   -0.0026 H   0  0  0  0  0  0  0  0  0  0  0  0
    0.5787    2.5921    0.2741 H   0  0  0  0  0  0  0  0  0  0  0  0
    1.9806    0.5965    0.2524 H   0  0  0  0  0  0  0  0  0  0  0  0
    1.0124   -1.6736   -0.0384 H   0  0  0  0  0  0  0  0  0  0  0  0
   -1.4670   -1.9218   -0.3142 H   0  0  0  0  0  0  0  0  0  0  0  0
   -5.0750    2.7464   -0.3301 O   0  0  0  0  0  0  0  0  0  0  0  0
   -4.7060    3.8896   -0.1918 C   0  0  0  0  0  0  0  0  0  0  0  0
   -3.4696    4.3237   -0.0089 O   0  0  0  0  0  0  0  0  0  0  0  0
   -5.6892    5.0817   -0.2122 C   0  0  0  0  0  0  0  0  0  0  0  0
   -5.3825    5.9254   -1.2145 F   0  0  0  0  0  0  0  0  0  0  0  0
   -6.9424    4.6520   -0.3860 F   0  0  0  0  0  0  0  0  0  0  0  0
   -5.6267    5.7634    0.9461 F   0  0  0  0  0  0  0  0  0  0  0  0
  1  4  1  0  0  0  0
  2  1  1  0  0  0  0
  3  2  1  0  0  0  0
  4  5  2  0  0  0  0
  5 10  1  0  0  0  0
  6  5  1  0  0  0  0
  6 11  1  0  0  0  0
  7  6  2  0  0  0  0
  8  1  2  0  0  0  0
  8  7  1  0  0  0  0
 12  7  1  0  0  0  0
 13  8  1  0  0  0  0
 14 15  2  0  0  0  0
 15 16  1  0  0  0  0
 16  9  1  0  0  0  0
 17 15  1  0  0  0  0
 17 20  1  0  0  0  0
 18 17  1  0  0  0  0
 19 17  1  0  0  0  0
M  RAD  3   2   2   3   3   4   2
M  END
