Coordinates from ORCA-job PhN2+~CF3COO-_B3LYPG-6-31G_dp-CH-Scan-d09-49-n800
 OpenBabel11261919373D

 20 19  0  0  0  0  0  0  0  0999 V2000
   -1.3024    0.7305   -1.2192 C   0  0  0  0  0  0  0  0  0  0  0  0
   -2.1730    0.8654   -2.3000 N   0  0  0  0  0  0  0  0  0  0  0  0
   -2.8034    0.9892   -3.2161 N   0  0  0  0  0  0  0  0  0  0  0  0
    0.0276    0.9743   -1.5926 C   0  0  0  0  0  0  0  0  0  0  0  0
    0.8665    0.8093   -0.4511 C   0  0  0  0  0  0  0  0  0  0  0  0
    0.4001    0.4514    0.8098 C   0  0  0  0  0  0  0  0  0  0  0  0
   -0.9785    0.2319    1.0608 C   0  0  0  0  0  0  0  0  0  0  0  0
   -1.8797    0.3727    0.0295 C   0  0  0  0  0  0  0  0  0  0  0  0
   -2.8909    4.7482   -0.6924 H   0  0  0  0  0  0  0  0  0  0  0  0
    1.9405    0.9687   -0.5623 H   0  0  0  0  0  0  0  0  0  0  0  0
    1.0999    0.3341    1.6362 H   0  0  0  0  0  0  0  0  0  0  0  0
   -1.3181   -0.0431    2.0544 H   0  0  0  0  0  0  0  0  0  0  0  0
   -2.9490    0.2316    0.1575 H   0  0  0  0  0  0  0  0  0  0  0  0
   -4.0494    2.7097   -0.8654 O   0  0  0  0  0  0  0  0  0  0  0  0
   -4.3579    3.6761   -0.2143 C   0  0  0  0  0  0  0  0  0  0  0  0
   -3.6855    4.8267   -0.1366 O   0  0  0  0  0  0  0  0  0  0  0  0
   -5.6279    3.7425    0.6619 C   0  0  0  0  0  0  0  0  0  0  0  0
   -6.4476    4.7072    0.2129 F   0  0  0  0  0  0  0  0  0  0  0  0
   -6.2717    2.5747    0.6239 F   0  0  0  0  0  0  0  0  0  0  0  0
   -5.3008    4.0178    1.9350 F   0  0  0  0  0  0  0  0  0  0  0  0
  1  8  1  0  0  0  0
  2  1  1  0  0  0  0
  3  2  1  0  0  0  0
  4  1  2  0  0  0  0
  4  5  1  0  0  0  0
  5  6  2  0  0  0  0
  6  7  1  0  0  0  0
  6 11  1  0  0  0  0
  7 12  1  0  0  0  0
  8 13  1  0  0  0  0
  8  7  2  0  0  0  0
  9 16  1  0  0  0  0
 10  5  1  0  0  0  0
 14 15  2  0  0  0  0
 15 16  1  0  0  0  0
 15 17  1  0  0  0  0
 17 20  1  0  0  0  0
 18 17  1  0  0  0  0
 19 17  1  0  0  0  0
M  RAD  3   2   2   3   3   4   2
M  END
