Coordinates from ORCA-job PhN2+~CF3COO-_B3LYPG-6-31G_dp-CH-Scan-d09-49-n800
 OpenBabel11261919373D

 20 19  0  0  0  0  0  0  0  0999 V2000
   -1.6621    0.2261   -0.1537 C   0  0  0  0  0  0  0  0  0  0  0  0
   -3.0435    0.1447   -0.3004 N   0  0  0  0  0  0  0  0  0  0  0  0
   -4.1556    0.1303   -0.4138 N   0  0  0  0  0  0  0  0  0  0  0  0
   -1.1901    1.5397    0.0064 C   0  0  0  0  0  0  0  0  0  0  0  0
    0.2241    1.5275    0.1509 C   0  0  0  0  0  0  0  0  0  0  0  0
    0.9939    0.3681    0.1322 C   0  0  0  0  0  0  0  0  0  0  0  0
    0.4083   -0.9099   -0.0372 C   0  0  0  0  0  0  0  0  0  0  0  0
   -0.9570   -1.0079   -0.1864 C   0  0  0  0  0  0  0  0  0  0  0  0
   -2.9219    3.8125    0.0149 H   0  0  0  0  0  0  0  0  0  0  0  0
    0.7456    2.4752    0.2856 H   0  0  0  0  0  0  0  0  0  0  0  0
    2.0743    0.4318    0.2511 H   0  0  0  0  0  0  0  0  0  0  0  0
    1.0270   -1.8013   -0.0491 H   0  0  0  0  0  0  0  0  0  0  0  0
   -1.4612   -1.9611   -0.3203 H   0  0  0  0  0  0  0  0  0  0  0  0
   -5.0647    2.8438   -0.3191 O   0  0  0  0  0  0  0  0  0  0  0  0
   -4.7860    4.0112   -0.1892 C   0  0  0  0  0  0  0  0  0  0  0  0
   -3.5807    4.5358   -0.0015 O   0  0  0  0  0  0  0  0  0  0  0  0
   -5.8493    5.1314   -0.2263 C   0  0  0  0  0  0  0  0  0  0  0  0
   -5.5971    5.9819   -1.2373 F   0  0  0  0  0  0  0  0  0  0  0  0
   -7.0672    4.6113   -0.3992 F   0  0  0  0  0  0  0  0  0  0  0  0
   -5.8382    5.8279    0.9242 F   0  0  0  0  0  0  0  0  0  0  0  0
  1  4  1  0  0  0  0
  2  1  1  0  0  0  0
  3  2  1  0  0  0  0
  4  5  2  0  0  0  0
  5 10  1  0  0  0  0
  6  5  1  0  0  0  0
  6 11  1  0  0  0  0
  7  6  2  0  0  0  0
  8  1  2  0  0  0  0
  8  7  1  0  0  0  0
 12  7  1  0  0  0  0
 13  8  1  0  0  0  0
 14 15  2  0  0  0  0
 15 16  1  0  0  0  0
 16  9  1  0  0  0  0
 17 15  1  0  0  0  0
 17 20  1  0  0  0  0
 18 17  1  0  0  0  0
 19 17  1  0  0  0  0
M  RAD  3   2   2   3   3   4   2
M  END
