Coordinates from ORCA-job PhN2+~CF3COO-_B3LYPG-6-31G_dp-CH-Scan-d09-49-n800
 OpenBabel11261919373D

 20 19  0  0  0  0  0  0  0  0999 V2000
   -1.3132    0.1362   -0.1615 C   0  0  0  0  0  0  0  0  0  0  0  0
   -2.6898    0.2953   -0.3239 N   0  0  0  0  0  0  0  0  0  0  0  0
   -3.7853    0.4886   -0.4483 N   0  0  0  0  0  0  0  0  0  0  0  0
   -0.6487    1.3621   -0.0037 C   0  0  0  0  0  0  0  0  0  0  0  0
    0.7463    1.1152    0.1591 C   0  0  0  0  0  0  0  0  0  0  0  0
    1.3175   -0.1530    0.1578 C   0  0  0  0  0  0  0  0  0  0  0  0
    0.5346   -1.3227   -0.0127 C   0  0  0  0  0  0  0  0  0  0  0  0
   -0.8261   -1.1997   -0.1798 C   0  0  0  0  0  0  0  0  0  0  0  0
   -3.2525    4.9701   -0.0078 H   0  0  0  0  0  0  0  0  0  0  0  0
    1.4164    1.9655    0.2953 H   0  0  0  0  0  0  0  0  0  0  0  0
    2.3927   -0.2664    0.2912 H   0  0  0  0  0  0  0  0  0  0  0  0
    1.0026   -2.3020   -0.0113 H   0  0  0  0  0  0  0  0  0  0  0  0
   -1.4777   -2.0588   -0.3159 H   0  0  0  0  0  0  0  0  0  0  0  0
   -4.9266    3.3420   -0.2891 O   0  0  0  0  0  0  0  0  0  0  0  0
   -5.0701    4.5332   -0.1919 C   0  0  0  0  0  0  0  0  0  0  0  0
   -4.1028    5.4420   -0.0328 O   0  0  0  0  0  0  0  0  0  0  0  0
   -6.4462    5.2321   -0.2379 C   0  0  0  0  0  0  0  0  0  0  0  0
   -6.4951    6.0957   -1.2671 F   0  0  0  0  0  0  0  0  0  0  0  0
   -7.4167    4.3289   -0.3879 F   0  0  0  0  0  0  0  0  0  0  0  0
   -6.6609    5.9147    0.8999 F   0  0  0  0  0  0  0  0  0  0  0  0
  1  4  1  0  0  0  0
  2  1  1  0  0  0  0
  3  2  1  0  0  0  0
  4  5  2  0  0  0  0
  5 10  1  0  0  0  0
  6  5  1  0  0  0  0
  6 11  1  0  0  0  0
  7 12  1  0  0  0  0
  7  6  2  0  0  0  0
  8  1  2  0  0  0  0
  8  7  1  0  0  0  0
 13  8  1  0  0  0  0
 14 15  2  0  0  0  0
 15 16  1  0  0  0  0
 16  9  1  0  0  0  0
 17 15  1  0  0  0  0
 17 20  1  0  0  0  0
 18 17  1  0  0  0  0
 19 17  1  0  0  0  0
M  RAD  3   2   2   3   3   4   2
M  END
