Coordinates from ORCA-job PhN2+~CF3COO-_B3LYPG-6-31G_dp-CH-Scan-d09-49-n800
 OpenBabel11261919373D

 20 19  0  0  0  0  0  0  0  0999 V2000
   -2.0718    0.6755   -0.1018 C   0  0  0  0  0  0  0  0  0  0  0  0
   -3.4840    0.5795   -0.1693 N   0  0  0  0  0  0  0  0  0  0  0  0
   -4.4055   -0.0654   -0.2078 N   0  0  0  0  0  0  0  0  0  0  0  0
   -1.4291    1.9085   -0.1679 C   0  0  0  0  0  0  0  0  0  0  0  0
   -0.0345    1.8982   -0.1043 C   0  0  0  0  0  0  0  0  0  0  0  0
    0.6705    0.7013    0.0237 C   0  0  0  0  0  0  0  0  0  0  0  0
   -0.0090   -0.5225    0.0875 C   0  0  0  0  0  0  0  0  0  0  0  0
   -1.3947   -0.5511    0.0230 C   0  0  0  0  0  0  0  0  0  0  0  0
   -1.9118    2.7047   -0.2539 H   0  0  0  0  0  0  0  0  0  0  0  0
    0.4941    2.8444   -0.1550 H   0  0  0  0  0  0  0  0  0  0  0  0
    1.7551    0.7150    0.0754 H   0  0  0  0  0  0  0  0  0  0  0  0
    0.5408   -1.4526    0.1878 H   0  0  0  0  0  0  0  0  0  0  0  0
   -1.9487   -1.4821    0.0693 H   0  0  0  0  0  0  0  0  0  0  0  0
   -4.3609    2.5373   -0.1029 O   0  0  0  0  0  0  0  0  0  0  0  0
   -4.1124    3.7841   -0.2316 C   0  0  0  0  0  0  0  0  0  0  0  0
   -3.0468    4.3802   -0.3891 O   0  0  0  0  0  0  0  0  0  0  0  0
   -5.4267    4.6257   -0.1756 C   0  0  0  0  0  0  0  0  0  0  0  0
   -5.1840    5.9417   -0.2700 F   0  0  0  0  0  0  0  0  0  0  0  0
   -6.2541    4.2855   -1.1880 F   0  0  0  0  0  0  0  0  0  0  0  0
   -6.0879    4.4109    0.9822 F   0  0  0  0  0  0  0  0  0  0  0  0
  1  8  2  0  0  0  0
  2  1  1  0  0  0  0
  3  2  2  0  0  0  0
  4  5  2  0  0  0  0
  4  1  1  0  0  0  0
  5  6  1  0  0  0  0
  6 11  1  0  0  0  0
  6  7  2  0  0  0  0
  7 12  1  0  0  0  0
  8 13  1  0  0  0  0
  8  7  1  0  0  0  0
  9  4  1  0  0  0  0
 10  5  1  0  0  0  0
 15 17  1  0  0  0  0
 15 14  1  0  0  0  0
 16 15  2  0  0  0  0
 17 20  1  0  0  0  0
 18 17  1  0  0  0  0
 19 17  1  0  0  0  0
M  RAD  2   3   2  14   2
M  END
