Coordinates from ORCA-job PhN2+~CF3COO-_B3LYPG-6-31G_dp-CH-Scan-d09-49-n800
 OpenBabel11261919373D

 20 19  0  0  0  0  0  0  0  0999 V2000
   -1.9381    0.3259   -0.1921 C   0  0  0  0  0  0  0  0  0  0  0  0
   -3.2966    0.0853   -0.3657 N   0  0  0  0  0  0  0  0  0  0  0  0
   -4.3992   -0.0238   -0.4985 N   0  0  0  0  0  0  0  0  0  0  0  0
   -1.5927    1.6800   -0.0488 C   0  0  0  0  0  0  0  0  0  0  0  0
   -0.1981    1.8346    0.1249 C   0  0  0  0  0  0  0  0  0  0  0  0
    0.6931    0.7638    0.1472 C   0  0  0  0  0  0  0  0  0  0  0  0
    0.2495   -0.5678   -0.0064 C   0  0  0  0  0  0  0  0  0  0  0  0
   -1.0959   -0.8141   -0.1819 C   0  0  0  0  0  0  0  0  0  0  0  0
   -2.6460    2.9898   -0.0663 H   0  0  0  0  0  0  0  0  0  0  0  0
    0.2033    2.8387    0.2492 H   0  0  0  0  0  0  0  0  0  0  0  0
    1.7561    0.9478    0.2867 H   0  0  0  0  0  0  0  0  0  0  0  0
    0.9571   -1.3899    0.0138 H   0  0  0  0  0  0  0  0  0  0  0  0
   -1.4908   -1.8181   -0.3050 H   0  0  0  0  0  0  0  0  0  0  0  0
   -5.0607    2.5550   -0.3168 O   0  0  0  0  0  0  0  0  0  0  0  0
   -4.5075    3.6348   -0.1890 C   0  0  0  0  0  0  0  0  0  0  0  0
   -3.2374    3.8874   -0.0585 O   0  0  0  0  0  0  0  0  0  0  0  0
   -5.3372    4.9417   -0.1697 C   0  0  0  0  0  0  0  0  0  0  0  0
   -4.9768    5.7464   -1.1899 F   0  0  0  0  0  0  0  0  0  0  0  0
   -6.6468    4.6859   -0.2818 F   0  0  0  0  0  0  0  0  0  0  0  0
   -5.1368    5.6155    0.9805 F   0  0  0  0  0  0  0  0  0  0  0  0
  1  8  2  0  0  0  0
  1  4  1  0  0  0  0
  2  1  1  0  0  0  0
  3  2  1  0  0  0  0
  4  5  2  0  0  0  0
  5  6  1  0  0  0  0
  5 10  1  0  0  0  0
  6 11  1  0  0  0  0
  7 12  1  0  0  0  0
  7  6  2  0  0  0  0
  8  7  1  0  0  0  0
  9 16  1  0  0  0  0
 13  8  1  0  0  0  0
 14 15  2  0  0  0  0
 15 17  1  0  0  0  0
 15 16  1  0  0  0  0
 17 20  1  0  0  0  0
 18 17  1  0  0  0  0
 19 17  1  0  0  0  0
M  RAD  3   2   2   3   3   4   2
M  END
