Coordinates from ORCA-job PhN2+~CF3COO-_B3LYPG-6-31G_dp-CH-Scan-d09-49-n800
 OpenBabel11261919373D

 20 19  0  0  0  0  0  0  0  0999 V2000
   -2.0517    0.8287   -0.4139 C   0  0  0  0  0  0  0  0  0  0  0  0
   -3.4057    0.8156   -0.8653 N   0  0  0  0  0  0  0  0  0  0  0  0
   -4.2005    0.2542   -1.4356 N   0  0  0  0  0  0  0  0  0  0  0  0
   -1.3177    2.0108   -0.4556 C   0  0  0  0  0  0  0  0  0  0  0  0
    0.0161    1.9472   -0.0595 C   0  0  0  0  0  0  0  0  0  0  0  0
    0.5697    0.7426    0.3851 C   0  0  0  0  0  0  0  0  0  0  0  0
   -0.1995   -0.4247    0.4206 C   0  0  0  0  0  0  0  0  0  0  0  0
   -1.5289   -0.3983    0.0090 C   0  0  0  0  0  0  0  0  0  0  0  0
   -1.8021    2.9222   -0.8221 H   0  0  0  0  0  0  0  0  0  0  0  0
    0.6218    2.8469   -0.0916 H   0  0  0  0  0  0  0  0  0  0  0  0
    1.6056    0.7118    0.7076 H   0  0  0  0  0  0  0  0  0  0  0  0
    0.2326   -1.3574    0.7676 H   0  0  0  0  0  0  0  0  0  0  0  0
   -2.1487   -1.2878    0.0236 H   0  0  0  0  0  0  0  0  0  0  0  0
   -4.2070    2.3575    0.2842 O   0  0  0  0  0  0  0  0  0  0  0  0
   -4.2563    3.4317   -0.4059 C   0  0  0  0  0  0  0  0  0  0  0  0
   -3.6261    3.7313   -1.4227 O   0  0  0  0  0  0  0  0  0  0  0  0
   -5.2649    4.4617    0.1835 C   0  0  0  0  0  0  0  0  0  0  0  0
   -5.3008    5.5919   -0.5365 F   0  0  0  0  0  0  0  0  0  0  0  0
   -6.5110    3.9454    0.2102 F   0  0  0  0  0  0  0  0  0  0  0  0
   -4.9262    4.7879    1.4492 F   0  0  0  0  0  0  0  0  0  0  0  0
  1  8  1  0  0  0  0
  2  1  1  0  0  0  0
  3  2  2  0  0  0  0
  4  1  2  0  0  0  0
  4  5  1  0  0  0  0
  5  6  2  0  0  0  0
  6  7  1  0  0  0  0
  6 11  1  0  0  0  0
  7 12  1  0  0  0  0
  8 13  1  0  0  0  0
  8  7  2  0  0  0  0
  9  4  1  0  0  0  0
 10  5  1  0  0  0  0
 15 17  1  0  0  0  0
 15 14  1  0  0  0  0
 16 15  2  0  0  0  0
 17 19  1  0  0  0  0
 17 20  1  0  0  0  0
 18 17  1  0  0  0  0
M  RAD  2   3   2  14   2
M  END
