Coordinates from ORCA-job PhN2+~CF3COO-_B3LYPG-6-31G_dp-CH-Scan-d09-49-n800
 OpenBabel11261919373D

 20 19  0  0  0  0  0  0  0  0999 V2000
   -1.7532    0.2571   -0.1603 C   0  0  0  0  0  0  0  0  0  0  0  0
   -3.1290    0.1199   -0.3103 N   0  0  0  0  0  0  0  0  0  0  0  0
   -4.2387    0.0600   -0.4269 N   0  0  0  0  0  0  0  0  0  0  0  0
   -1.3256    1.5869   -0.0054 C   0  0  0  0  0  0  0  0  0  0  0  0
    0.0858    1.6308    0.1425 C   0  0  0  0  0  0  0  0  0  0  0  0
    0.8984    0.5006    0.1317 C   0  0  0  0  0  0  0  0  0  0  0  0
    0.3608   -0.7981   -0.0321 C   0  0  0  0  0  0  0  0  0  0  0  0
   -0.9999   -0.9475   -0.1840 C   0  0  0  0  0  0  0  0  0  0  0  0
   -2.8481    3.5408   -0.0036 H   0  0  0  0  0  0  0  0  0  0  0  0
    0.5692    2.5985    0.2734 H   0  0  0  0  0  0  0  0  0  0  0  0
    1.9752    0.6057    0.2525 H   0  0  0  0  0  0  0  0  0  0  0  0
    1.0114   -1.6664   -0.0377 H   0  0  0  0  0  0  0  0  0  0  0  0
   -1.4674   -1.9195   -0.3139 H   0  0  0  0  0  0  0  0  0  0  0  0
   -5.0751    2.7412   -0.3306 O   0  0  0  0  0  0  0  0  0  0  0  0
   -4.7012    3.8829   -0.1919 C   0  0  0  0  0  0  0  0  0  0  0  0
   -3.4634    4.3122   -0.0094 O   0  0  0  0  0  0  0  0  0  0  0  0
   -5.6802    5.0786   -0.2113 C   0  0  0  0  0  0  0  0  0  0  0  0
   -5.3707    5.9218   -1.2132 F   0  0  0  0  0  0  0  0  0  0  0  0
   -6.9350    4.6536   -0.3850 F   0  0  0  0  0  0  0  0  0  0  0  0
   -5.6149    5.7595    0.9474 F   0  0  0  0  0  0  0  0  0  0  0  0
  1  4  1  0  0  0  0
  2  1  1  0  0  0  0
  3  2  1  0  0  0  0
  4  5  2  0  0  0  0
  5 10  1  0  0  0  0
  6  5  1  0  0  0  0
  6 11  1  0  0  0  0
  7  6  2  0  0  0  0
  8  1  2  0  0  0  0
  8  7  1  0  0  0  0
 12  7  1  0  0  0  0
 13  8  1  0  0  0  0
 14 15  2  0  0  0  0
 15 16  1  0  0  0  0
 16  9  1  0  0  0  0
 17 15  1  0  0  0  0
 17 20  1  0  0  0  0
 18 17  1  0  0  0  0
 19 17  1  0  0  0  0
M  RAD  3   2   2   3   3   4   2
M  END
