Coordinates from ORCA-job PhN2+~CF3COO-_B3LYPG-6-31G_dp-CH-Scan-d09-49-n800
 OpenBabel11261919373D

 20 19  0  0  0  0  0  0  0  0999 V2000
   -1.2454    0.1325   -0.2297 C   0  0  0  0  0  0  0  0  0  0  0  0
   -2.6059    0.3353   -0.4643 N   0  0  0  0  0  0  0  0  0  0  0  0
   -3.6855    0.5666   -0.6496 N   0  0  0  0  0  0  0  0  0  0  0  0
   -0.5443    1.3399   -0.0919 C   0  0  0  0  0  0  0  0  0  0  0  0
    0.8317    1.0519    0.1474 C   0  0  0  0  0  0  0  0  0  0  0  0
    1.3546   -0.2346    0.2277 C   0  0  0  0  0  0  0  0  0  0  0  0
    0.5374   -1.3825    0.0691 C   0  0  0  0  0  0  0  0  0  0  0  0
   -0.8084   -1.2194   -0.1688 C   0  0  0  0  0  0  0  0  0  0  0  0
   -3.3216    5.1240   -0.1802 H   0  0  0  0  0  0  0  0  0  0  0  0
    1.5258    1.8834    0.2793 H   0  0  0  0  0  0  0  0  0  0  0  0
    2.4172   -0.3798    0.4180 H   0  0  0  0  0  0  0  0  0  0  0  0
    0.9682   -2.3765    0.1348 H   0  0  0  0  0  0  0  0  0  0  0  0
   -1.4845   -2.0601   -0.3006 H   0  0  0  0  0  0  0  0  0  0  0  0
   -4.9358    3.4235   -0.3445 O   0  0  0  0  0  0  0  0  0  0  0  0
   -5.1262    4.6060   -0.2265 C   0  0  0  0  0  0  0  0  0  0  0  0
   -4.1912    5.5577   -0.1360 O   0  0  0  0  0  0  0  0  0  0  0  0
   -6.5317    5.2412   -0.1551 C   0  0  0  0  0  0  0  0  0  0  0  0
   -6.6911    6.1356   -1.1458 F   0  0  0  0  0  0  0  0  0  0  0  0
   -7.4693    4.2992   -0.2708 F   0  0  0  0  0  0  0  0  0  0  0  0
   -6.6955    5.8748    1.0192 F   0  0  0  0  0  0  0  0  0  0  0  0
  1  8  2  0  0  0  0
  1  4  1  0  0  0  0
  2  1  1  0  0  0  0
  3  2  1  0  0  0  0
  4  5  2  0  0  0  0
  5  6  1  0  0  0  0
  5 10  1  0  0  0  0
  6 11  1  0  0  0  0
  7 12  1  0  0  0  0
  7  6  2  0  0  0  0
  8  7  1  0  0  0  0
  9 16  1  0  0  0  0
 13  8  1  0  0  0  0
 14 15  2  0  0  0  0
 15 17  1  0  0  0  0
 15 16  1  0  0  0  0
 17 20  1  0  0  0  0
 18 17  1  0  0  0  0
 19 17  1  0  0  0  0
M  RAD  3   2   2   3   3   4   2
M  END
