Coordinates from ORCA-job PhN2+~CF3COO-_B3LYPG-6-31G_dp-CH-Scan-d09-49-n800
 OpenBabel11261919373D

 20 19  0  0  0  0  0  0  0  0999 V2000
   -1.9467    0.3305   -0.1948 C   0  0  0  0  0  0  0  0  0  0  0  0
   -3.3049    0.0882   -0.3707 N   0  0  0  0  0  0  0  0  0  0  0  0
   -4.4082   -0.0126   -0.5042 N   0  0  0  0  0  0  0  0  0  0  0  0
   -1.6026    1.6844   -0.0516 C   0  0  0  0  0  0  0  0  0  0  0  0
   -0.2099    1.8447    0.1246 C   0  0  0  0  0  0  0  0  0  0  0  0
    0.6838    0.7758    0.1492 C   0  0  0  0  0  0  0  0  0  0  0  0
    0.2435   -0.5565   -0.0043 C   0  0  0  0  0  0  0  0  0  0  0  0
   -1.1013   -0.8064   -0.1821 C   0  0  0  0  0  0  0  0  0  0  0  0
   -2.6277    2.9528   -0.0713 H   0  0  0  0  0  0  0  0  0  0  0  0
    0.1870    2.8504    0.2488 H   0  0  0  0  0  0  0  0  0  0  0  0
    1.7460    0.9626    0.2905 H   0  0  0  0  0  0  0  0  0  0  0  0
    0.9529   -1.3769    0.0178 H   0  0  0  0  0  0  0  0  0  0  0  0
   -1.4934   -1.8114   -0.3052 H   0  0  0  0  0  0  0  0  0  0  0  0
   -5.0616    2.5453   -0.3112 O   0  0  0  0  0  0  0  0  0  0  0  0
   -4.4978    3.6219   -0.1881 C   0  0  0  0  0  0  0  0  0  0  0  0
   -3.2281    3.8659   -0.0647 O   0  0  0  0  0  0  0  0  0  0  0  0
   -5.3221    4.9328   -0.1675 C   0  0  0  0  0  0  0  0  0  0  0  0
   -4.9629    5.7346   -1.1908 F   0  0  0  0  0  0  0  0  0  0  0  0
   -6.6340    4.6845   -0.2731 F   0  0  0  0  0  0  0  0  0  0  0  0
   -5.1136    5.6084    0.9806 F   0  0  0  0  0  0  0  0  0  0  0  0
  1  8  2  0  0  0  0
  1  4  1  0  0  0  0
  2  1  1  0  0  0  0
  3  2  1  0  0  0  0
  4  5  2  0  0  0  0
  5  6  1  0  0  0  0
  5 10  1  0  0  0  0
  6 11  1  0  0  0  0
  7 12  1  0  0  0  0
  7  6  2  0  0  0  0
  8  7  1  0  0  0  0
  9 16  1  0  0  0  0
 13  8  1  0  0  0  0
 14 15  2  0  0  0  0
 15 17  1  0  0  0  0
 15 16  1  0  0  0  0
 17 20  1  0  0  0  0
 18 17  1  0  0  0  0
 19 17  1  0  0  0  0
M  RAD  3   2   2   3   3   4   2
M  END
