Coordinates from ORCA-job PhN2+~CF3COO-_B3LYPG-6-31G_dp-CH-Scan-d09-49-n800
 OpenBabel11261919373D

 20 19  0  0  0  0  0  0  0  0999 V2000
   -1.8604    0.2943   -0.1732 C   0  0  0  0  0  0  0  0  0  0  0  0
   -3.2265    0.0919   -0.3319 N   0  0  0  0  0  0  0  0  0  0  0  0
   -4.3316   -0.0111   -0.4549 N   0  0  0  0  0  0  0  0  0  0  0  0
   -1.4848    1.6408   -0.0251 C   0  0  0  0  0  0  0  0  0  0  0  0
   -0.0800    1.7486    0.1320 C   0  0  0  0  0  0  0  0  0  0  0  0
    0.7807    0.6538    0.1355 C   0  0  0  0  0  0  0  0  0  0  0  0
    0.2995   -0.6660   -0.0219 C   0  0  0  0  0  0  0  0  0  0  0  0
   -1.0532   -0.8735   -0.1820 C   0  0  0  0  0  0  0  0  0  0  0  0
   -2.7486    3.2376   -0.0300 H   0  0  0  0  0  0  0  0  0  0  0  0
    0.3573    2.7379    0.2586 H   0  0  0  0  0  0  0  0  0  0  0  0
    1.8506    0.8067    0.2628 H   0  0  0  0  0  0  0  0  0  0  0  0
    0.9853   -1.5067   -0.0163 H   0  0  0  0  0  0  0  0  0  0  0  0
   -1.4779   -1.8653   -0.3075 H   0  0  0  0  0  0  0  0  0  0  0  0
   -5.0681    2.6326   -0.3387 O   0  0  0  0  0  0  0  0  0  0  0  0
   -4.5923    3.7393   -0.1933 C   0  0  0  0  0  0  0  0  0  0  0  0
   -3.3305    4.0649   -0.0246 O   0  0  0  0  0  0  0  0  0  0  0  0
   -5.4803    5.0053   -0.1902 C   0  0  0  0  0  0  0  0  0  0  0  0
   -5.1262    5.8316   -1.1931 F   0  0  0  0  0  0  0  0  0  0  0  0
   -6.7685    4.6814   -0.3447 F   0  0  0  0  0  0  0  0  0  0  0  0
   -5.3461    5.6747    0.9704 F   0  0  0  0  0  0  0  0  0  0  0  0
  1  4  1  0  0  0  0
  2  1  1  0  0  0  0
  3  2  1  0  0  0  0
  4  5  2  0  0  0  0
  5  6  1  0  0  0  0
  5 10  1  0  0  0  0
  6 11  1  0  0  0  0
  7 12  1  0  0  0  0
  7  6  2  0  0  0  0
  8  1  2  0  0  0  0
  8  7  1  0  0  0  0
  9 16  1  0  0  0  0
 13  8  1  0  0  0  0
 14 15  2  0  0  0  0
 15 17  1  0  0  0  0
 15 16  1  0  0  0  0
 17 20  1  0  0  0  0
 18 17  1  0  0  0  0
 19 17  1  0  0  0  0
M  RAD  3   2   2   3   3   4   2
M  END
