Coordinates from ORCA-job PhN2+~CF3COO-_B3LYPG-6-31G_dp-CH-Scan-d09-49-n800
 OpenBabel11261919373D

 20 19  0  0  0  0  0  0  0  0999 V2000
   -1.9573    0.3378   -0.1992 C   0  0  0  0  0  0  0  0  0  0  0  0
   -3.3161    0.0981   -0.3788 N   0  0  0  0  0  0  0  0  0  0  0  0
   -4.4217    0.0258   -0.5125 N   0  0  0  0  0  0  0  0  0  0  0  0
   -1.6113    1.6903   -0.0559 C   0  0  0  0  0  0  0  0  0  0  0  0
   -0.2223    1.8584    0.1248 C   0  0  0  0  0  0  0  0  0  0  0  0
    0.6733    0.7906    0.1531 C   0  0  0  0  0  0  0  0  0  0  0  0
    0.2355   -0.5418   -0.0005 C   0  0  0  0  0  0  0  0  0  0  0  0
   -1.1089   -0.7949   -0.1824 C   0  0  0  0  0  0  0  0  0  0  0  0
   -2.5939    2.8899   -0.0804 H   0  0  0  0  0  0  0  0  0  0  0  0
    0.1688    2.8661    0.2489 H   0  0  0  0  0  0  0  0  0  0  0  0
    1.7346    0.9796    0.2975 H   0  0  0  0  0  0  0  0  0  0  0  0
    0.9461   -1.3609    0.0247 H   0  0  0  0  0  0  0  0  0  0  0  0
   -1.4982   -1.8009   -0.3057 H   0  0  0  0  0  0  0  0  0  0  0  0
   -5.0681    2.5310   -0.3014 O   0  0  0  0  0  0  0  0  0  0  0  0
   -4.4864    3.6027   -0.1879 C   0  0  0  0  0  0  0  0  0  0  0  0
   -3.2187    3.8342   -0.0776 O   0  0  0  0  0  0  0  0  0  0  0  0
   -5.3046    4.9185   -0.1643 C   0  0  0  0  0  0  0  0  0  0  0  0
   -4.9501    5.7162   -1.1932 F   0  0  0  0  0  0  0  0  0  0  0  0
   -6.6201    4.6809   -0.2573 F   0  0  0  0  0  0  0  0  0  0  0  0
   -5.0821    5.5975    0.9799 F   0  0  0  0  0  0  0  0  0  0  0  0
  1  8  2  0  0  0  0
  1  4  1  0  0  0  0
  2  1  1  0  0  0  0
  3  2  1  0  0  0  0
  4  5  2  0  0  0  0
  5  6  1  0  0  0  0
  5 10  1  0  0  0  0
  6 11  1  0  0  0  0
  7 12  1  0  0  0  0
  7  6  2  0  0  0  0
  8  7  1  0  0  0  0
  9 16  1  0  0  0  0
 13  8  1  0  0  0  0
 14 15  2  0  0  0  0
 15 17  1  0  0  0  0
 15 16  1  0  0  0  0
 17 20  1  0  0  0  0
 18 17  1  0  0  0  0
 19 17  1  0  0  0  0
M  RAD  3   2   2   3   3   4   2
M  END
