Coordinates from ORCA-job PhN2+~CF3COO-_B3LYPG-6-31G_dp-CH-Scan-d09-49-n800
 OpenBabel11261919373D

 20 19  0  0  0  0  0  0  0  0999 V2000
   -2.0697    0.6756   -0.1021 C   0  0  0  0  0  0  0  0  0  0  0  0
   -3.4820    0.5796   -0.1700 N   0  0  0  0  0  0  0  0  0  0  0  0
   -4.4038   -0.0648   -0.2091 N   0  0  0  0  0  0  0  0  0  0  0  0
   -1.4254    1.9078   -0.1686 C   0  0  0  0  0  0  0  0  0  0  0  0
   -0.0307    1.8958   -0.1047 C   0  0  0  0  0  0  0  0  0  0  0  0
    0.6727    0.6980    0.0240 C   0  0  0  0  0  0  0  0  0  0  0  0
   -0.0083   -0.5250    0.0882 C   0  0  0  0  0  0  0  0  0  0  0  0
   -1.3939   -0.5518    0.0234 C   0  0  0  0  0  0  0  0  0  0  0  0
   -1.9174    2.7216   -0.2567 H   0  0  0  0  0  0  0  0  0  0  0  0
    0.4994    2.8411   -0.1557 H   0  0  0  0  0  0  0  0  0  0  0  0
    1.7574    0.7104    0.0759 H   0  0  0  0  0  0  0  0  0  0  0  0
    0.5403   -1.4557    0.1891 H   0  0  0  0  0  0  0  0  0  0  0  0
   -1.9490   -1.4821    0.0700 H   0  0  0  0  0  0  0  0  0  0  0  0
   -4.3624    2.5379   -0.1021 O   0  0  0  0  0  0  0  0  0  0  0  0
   -4.1152    3.7846   -0.2307 C   0  0  0  0  0  0  0  0  0  0  0  0
   -3.0494    4.3811   -0.3879 O   0  0  0  0  0  0  0  0  0  0  0  0
   -5.4295    4.6260   -0.1754 C   0  0  0  0  0  0  0  0  0  0  0  0
   -5.1870    5.9420   -0.2704 F   0  0  0  0  0  0  0  0  0  0  0  0
   -6.2566    4.2851   -1.1877 F   0  0  0  0  0  0  0  0  0  0  0  0
   -6.0907    4.4116    0.9825 F   0  0  0  0  0  0  0  0  0  0  0  0
  1  8  2  0  0  0  0
  2  1  1  0  0  0  0
  3  2  2  0  0  0  0
  4  5  2  0  0  0  0
  4  1  1  0  0  0  0
  5  6  1  0  0  0  0
  6 11  1  0  0  0  0
  6  7  2  0  0  0  0
  7 12  1  0  0  0  0
  8 13  1  0  0  0  0
  8  7  1  0  0  0  0
  9  4  1  0  0  0  0
 10  5  1  0  0  0  0
 15 17  1  0  0  0  0
 15 14  1  0  0  0  0
 16 15  2  0  0  0  0
 17 20  1  0  0  0  0
 18 17  1  0  0  0  0
 19 17  1  0  0  0  0
M  RAD  2   3   2  14   2
M  END
