Coordinates from ORCA-job PhN2+~CF3COO-_B3LYPG-6-31G_dp-CH-Scan-d09-49-n800
 OpenBabel11261919373D

 20 19  0  0  0  0  0  0  0  0999 V2000
   -1.8838    0.3029   -0.1779 C   0  0  0  0  0  0  0  0  0  0  0  0
   -3.2475    0.0871   -0.3401 N   0  0  0  0  0  0  0  0  0  0  0  0
   -4.3514   -0.0225   -0.4656 N   0  0  0  0  0  0  0  0  0  0  0  0
   -1.5189    1.6525   -0.0313 C   0  0  0  0  0  0  0  0  0  0  0  0
   -0.1164    1.7743    0.1297 C   0  0  0  0  0  0  0  0  0  0  0  0
    0.7542    0.6873    0.1380 C   0  0  0  0  0  0  0  0  0  0  0  0
    0.2851   -0.6367   -0.0181 C   0  0  0  0  0  0  0  0  0  0  0  0
   -1.0654   -0.8565   -0.1818 C   0  0  0  0  0  0  0  0  0  0  0  0
   -2.7231    3.1687   -0.0393 H   0  0  0  0  0  0  0  0  0  0  0  0
    0.3103    2.7682    0.2555 H   0  0  0  0  0  0  0  0  0  0  0  0
    1.8222    0.8502    0.2683 H   0  0  0  0  0  0  0  0  0  0  0  0
    0.9781   -1.4714   -0.0087 H   0  0  0  0  0  0  0  0  0  0  0  0
   -1.4808   -1.8523   -0.3064 H   0  0  0  0  0  0  0  0  0  0  0  0
   -5.0656    2.6096   -0.3364 O   0  0  0  0  0  0  0  0  0  0  0  0
   -4.5674    3.7082   -0.1928 C   0  0  0  0  0  0  0  0  0  0  0  0
   -3.3019    4.0116   -0.0318 O   0  0  0  0  0  0  0  0  0  0  0  0
   -5.4365    4.9877   -0.1843 C   0  0  0  0  0  0  0  0  0  0  0  0
   -5.0777    5.8082   -1.1908 F   0  0  0  0  0  0  0  0  0  0  0  0
   -6.7315    4.6849   -0.3288 F   0  0  0  0  0  0  0  0  0  0  0  0
   -5.2837    5.6568    0.9745 F   0  0  0  0  0  0  0  0  0  0  0  0
  1  4  1  0  0  0  0
  2  1  1  0  0  0  0
  3  2  1  0  0  0  0
  4  5  2  0  0  0  0
  5  6  1  0  0  0  0
  5 10  1  0  0  0  0
  6 11  1  0  0  0  0
  7 12  1  0  0  0  0
  7  6  2  0  0  0  0
  8  1  2  0  0  0  0
  8  7  1  0  0  0  0
  9 16  1  0  0  0  0
 13  8  1  0  0  0  0
 14 15  2  0  0  0  0
 15 17  1  0  0  0  0
 15 16  1  0  0  0  0
 17 20  1  0  0  0  0
 18 17  1  0  0  0  0
 19 17  1  0  0  0  0
M  RAD  3   2   2   3   3   4   2
M  END
