Coordinates from ORCA-job PhN2+~CF3COO-_B3LYPG-6-31G_dp-CH-Scan-d09-49-n800
 OpenBabel11261919373D

 20 19  0  0  0  0  0  0  0  0999 V2000
   -1.6682    0.2268   -0.1545 C   0  0  0  0  0  0  0  0  0  0  0  0
   -3.0490    0.1413   -0.3032 N   0  0  0  0  0  0  0  0  0  0  0  0
   -4.1617    0.1239   -0.4099 N   0  0  0  0  0  0  0  0  0  0  0  0
   -1.2005    1.5416    0.0097 C   0  0  0  0  0  0  0  0  0  0  0  0
    0.2134    1.5339    0.1557 C   0  0  0  0  0  0  0  0  0  0  0  0
    0.9871    0.3770    0.1350 C   0  0  0  0  0  0  0  0  0  0  0  0
    0.4059   -0.9024   -0.0385 C   0  0  0  0  0  0  0  0  0  0  0  0
   -0.9589   -1.0046   -0.1895 C   0  0  0  0  0  0  0  0  0  0  0  0
   -2.9154    3.7959    0.0020 H   0  0  0  0  0  0  0  0  0  0  0  0
    0.7315    2.4830    0.2936 H   0  0  0  0  0  0  0  0  0  0  0  0
    2.0671    0.4441    0.2553 H   0  0  0  0  0  0  0  0  0  0  0  0
    1.0276   -1.7917   -0.0520 H   0  0  0  0  0  0  0  0  0  0  0  0
   -1.4597   -1.9591   -0.3265 H   0  0  0  0  0  0  0  0  0  0  0  0
   -5.0661    2.8370   -0.3164 O   0  0  0  0  0  0  0  0  0  0  0  0
   -4.7803    4.0033   -0.1909 C   0  0  0  0  0  0  0  0  0  0  0  0
   -3.5714    4.5222   -0.0121 O   0  0  0  0  0  0  0  0  0  0  0  0
   -5.8383    5.1287   -0.2241 C   0  0  0  0  0  0  0  0  0  0  0  0
   -5.5882    5.9756   -1.2387 F   0  0  0  0  0  0  0  0  0  0  0  0
   -7.0599    4.6144   -0.3881 F   0  0  0  0  0  0  0  0  0  0  0  0
   -5.8165    5.8279    0.9247 F   0  0  0  0  0  0  0  0  0  0  0  0
  1  4  1  0  0  0  0
  2  1  1  0  0  0  0
  3  2  1  0  0  0  0
  4  5  2  0  0  0  0
  5 10  1  0  0  0  0
  6  5  1  0  0  0  0
  6 11  1  0  0  0  0
  7  6  2  0  0  0  0
  8  1  2  0  0  0  0
  8  7  1  0  0  0  0
 12  7  1  0  0  0  0
 13  8  1  0  0  0  0
 14 15  2  0  0  0  0
 15 16  1  0  0  0  0
 16  9  1  0  0  0  0
 17 15  1  0  0  0  0
 17 20  1  0  0  0  0
 18 17  1  0  0  0  0
 19 17  1  0  0  0  0
M  RAD  3   2   2   3   3   4   2
M  END
