Coordinates from ORCA-job PhN2+~CF3COO-_B3LYPG-6-31G_dp-CH-Scan-d09-49-n800
 OpenBabel11261919373D

 20 19  0  0  0  0  0  0  0  0999 V2000
   -1.4155    0.1507   -0.1359 C   0  0  0  0  0  0  0  0  0  0  0  0
   -2.8011    0.2346   -0.2694 N   0  0  0  0  0  0  0  0  0  0  0  0
   -3.9080    0.3645   -0.3712 N   0  0  0  0  0  0  0  0  0  0  0  0
   -0.8119    1.4087    0.0195 C   0  0  0  0  0  0  0  0  0  0  0  0
    0.5967    1.2352    0.1508 C   0  0  0  0  0  0  0  0  0  0  0  0
    1.2343   -0.0008    0.1251 C   0  0  0  0  0  0  0  0  0  0  0  0
    0.5110   -1.2088   -0.0396 C   0  0  0  0  0  0  0  0  0  0  0  0
   -0.8577   -1.1567   -0.1764 C   0  0  0  0  0  0  0  0  0  0  0  0
   -3.1440    4.6322    0.0578 H   0  0  0  0  0  0  0  0  0  0  0  0
    1.2235    2.1188    0.2810 H   0  0  0  0  0  0  0  0  0  0  0  0
    2.3166   -0.0576    0.2342 H   0  0  0  0  0  0  0  0  0  0  0  0
    1.0299   -2.1619   -0.0574 H   0  0  0  0  0  0  0  0  0  0  0  0
   -1.4657   -2.0481   -0.3062 H   0  0  0  0  0  0  0  0  0  0  0  0
   -4.9711    3.1842   -0.2865 O   0  0  0  0  0  0  0  0  0  0  0  0
   -4.9913    4.3839   -0.1842 C   0  0  0  0  0  0  0  0  0  0  0  0
   -3.9419    5.1867    0.0104 O   0  0  0  0  0  0  0  0  0  0  0  0
   -6.2863    5.2213   -0.2630 C   0  0  0  0  0  0  0  0  0  0  0  0
   -6.2081    6.1074   -1.2710 F   0  0  0  0  0  0  0  0  0  0  0  0
   -7.3377    4.4264   -0.4697 F   0  0  0  0  0  0  0  0  0  0  0  0
   -6.4733    5.8981    0.8835 F   0  0  0  0  0  0  0  0  0  0  0  0
  1  4  1  0  0  0  0
  2  1  1  0  0  0  0
  3  2  1  0  0  0  0
  4  5  2  0  0  0  0
  5 10  1  0  0  0  0
  6  5  1  0  0  0  0
  6 11  1  0  0  0  0
  7  6  2  0  0  0  0
  8  1  2  0  0  0  0
  8  7  1  0  0  0  0
 12  7  1  0  0  0  0
 13  8  1  0  0  0  0
 14 15  2  0  0  0  0
 15 16  1  0  0  0  0
 16  9  1  0  0  0  0
 17 15  1  0  0  0  0
 17 20  1  0  0  0  0
 18 17  1  0  0  0  0
 19 17  1  0  0  0  0
M  RAD  3   2   2   3   3   4   2
M  END
