Coordinates from ORCA-job PhN2+~CF3COO-_B3LYPG-6-31G_dp-CH-Scan-d09-49-n800
 OpenBabel11261919373D

 20 19  0  0  0  0  0  0  0  0999 V2000
   -2.0588    0.6295   -0.1735 C   0  0  0  0  0  0  0  0  0  0  0  0
   -3.4526    0.4466   -0.3318 N   0  0  0  0  0  0  0  0  0  0  0  0
   -4.3871   -0.1535   -0.4784 N   0  0  0  0  0  0  0  0  0  0  0  0
   -1.4633    1.8891   -0.2151 C   0  0  0  0  0  0  0  0  0  0  0  0
   -0.0703    1.9005   -0.0767 C   0  0  0  0  0  0  0  0  0  0  0  0
    0.6606    0.7258    0.1002 C   0  0  0  0  0  0  0  0  0  0  0  0
    0.0162   -0.5210    0.1373 C   0  0  0  0  0  0  0  0  0  0  0  0
   -1.3589   -0.5874   -0.0043 C   0  0  0  0  0  0  0  0  0  0  0  0
   -2.1705    3.0007   -0.3603 H   0  0  0  0  0  0  0  0  0  0  0  0
    0.4483    2.8544   -0.1031 H   0  0  0  0  0  0  0  0  0  0  0  0
    1.7404    0.7708    0.2133 H   0  0  0  0  0  0  0  0  0  0  0  0
    0.5861   -1.4338    0.2756 H   0  0  0  0  0  0  0  0  0  0  0  0
   -1.8892   -1.5339    0.0156 H   0  0  0  0  0  0  0  0  0  0  0  0
   -4.4784    2.4795   -0.0358 O   0  0  0  0  0  0  0  0  0  0  0  0
   -4.1746    3.6819   -0.2155 C   0  0  0  0  0  0  0  0  0  0  0  0
   -3.0445    4.1801   -0.4428 O   0  0  0  0  0  0  0  0  0  0  0  0
   -5.3669    4.6736   -0.1218 C   0  0  0  0  0  0  0  0  0  0  0  0
   -5.0276    5.9191   -0.4868 F   0  0  0  0  0  0  0  0  0  0  0  0
   -6.3837    4.2729   -0.9116 F   0  0  0  0  0  0  0  0  0  0  0  0
   -5.8267    4.7238    1.1471 F   0  0  0  0  0  0  0  0  0  0  0  0
  1  8  1  0  0  0  0
  2  1  1  0  0  0  0
  3  2  2  0  0  0  0
  4  1  2  0  0  0  0
  4  5  1  0  0  0  0
  5  6  2  0  0  0  0
  6  7  1  0  0  0  0
  6 11  1  0  0  0  0
  7 12  1  0  0  0  0
  8 13  1  0  0  0  0
  8  7  2  0  0  0  0
  9  4  1  0  0  0  0
 10  5  1  0  0  0  0
 15 17  1  0  0  0  0
 15 14  1  0  0  0  0
 16 15  2  0  0  0  0
 17 20  1  0  0  0  0
 18 17  1  0  0  0  0
 19 17  1  0  0  0  0
M  RAD  2   3   2  14   2
M  END
