Coordinates from ORCA-job PhN2+~CF3COO-_B3LYPG-6-31G_dp-CH-Scan-d09-49-n800
 OpenBabel11261919373D

 20 19  0  0  0  0  0  0  0  0999 V2000
   -2.0673    0.6754   -0.1056 C   0  0  0  0  0  0  0  0  0  0  0  0
   -3.4793    0.5788   -0.1779 N   0  0  0  0  0  0  0  0  0  0  0  0
   -4.4017   -0.0641   -0.2219 N   0  0  0  0  0  0  0  0  0  0  0  0
   -1.4211    1.9067   -0.1730 C   0  0  0  0  0  0  0  0  0  0  0  0
   -0.0266    1.8931   -0.1054 C   0  0  0  0  0  0  0  0  0  0  0  0
    0.6749    0.6947    0.0280 C   0  0  0  0  0  0  0  0  0  0  0  0
   -0.0076   -0.5274    0.0930 C   0  0  0  0  0  0  0  0  0  0  0  0
   -1.3930   -0.5526    0.0242 C   0  0  0  0  0  0  0  0  0  0  0  0
   -1.9248    2.7422   -0.2667 H   0  0  0  0  0  0  0  0  0  0  0  0
    0.5052    2.8374   -0.1570 H   0  0  0  0  0  0  0  0  0  0  0  0
    1.7595    0.7059    0.0830 H   0  0  0  0  0  0  0  0  0  0  0  0
    0.5396   -1.4585    0.1975 H   0  0  0  0  0  0  0  0  0  0  0  0
   -1.9494   -1.4823    0.0712 H   0  0  0  0  0  0  0  0  0  0  0  0
   -4.3642    2.5381   -0.0985 O   0  0  0  0  0  0  0  0  0  0  0  0
   -4.1191    3.7841   -0.2323 C   0  0  0  0  0  0  0  0  0  0  0  0
   -3.0536    4.3799   -0.3986 O   0  0  0  0  0  0  0  0  0  0  0  0
   -5.4320    4.6266   -0.1711 C   0  0  0  0  0  0  0  0  0  0  0  0
   -5.1894    5.9422   -0.2708 F   0  0  0  0  0  0  0  0  0  0  0  0
   -6.2653    4.2836   -1.1776 F   0  0  0  0  0  0  0  0  0  0  0  0
   -6.0863    4.4153    0.9913 F   0  0  0  0  0  0  0  0  0  0  0  0
  1  8  1  0  0  0  0
  2  1  1  0  0  0  0
  3  2  2  0  0  0  0
  4  1  2  0  0  0  0
  4  5  1  0  0  0  0
  5  6  2  0  0  0  0
  6 11  1  0  0  0  0
  6  7  1  0  0  0  0
  7 12  1  0  0  0  0
  8 13  1  0  0  0  0
  8  7  2  0  0  0  0
  9  4  1  0  0  0  0
 10  5  1  0  0  0  0
 15 17  1  0  0  0  0
 15 14  1  0  0  0  0
 16 15  2  0  0  0  0
 17 20  1  0  0  0  0
 18 17  1  0  0  0  0
 19 17  1  0  0  0  0
M  RAD  2   3   2  14   2
M  END
