Coordinates from ORCA-job PhN2+~CF3COO-_B3LYPG-6-31G_dp-CH-Scan-d09-49-n800
 OpenBabel11261919373D

 20 19  0  0  0  0  0  0  0  0999 V2000
   -2.0541    0.7426   -0.3443 C   0  0  0  0  0  0  0  0  0  0  0  0
   -3.4279    0.6736   -0.7091 N   0  0  0  0  0  0  0  0  0  0  0  0
   -4.2856    0.0661   -1.1118 N   0  0  0  0  0  0  0  0  0  0  0  0
   -1.3592    1.9440   -0.4380 C   0  0  0  0  0  0  0  0  0  0  0  0
   -0.0006    1.9146   -0.1266 C   0  0  0  0  0  0  0  0  0  0  0  0
    0.6117    0.7276    0.2845 C   0  0  0  0  0  0  0  0  0  0  0  0
   -0.1213   -0.4627    0.3720 C   0  0  0  0  0  0  0  0  0  0  0  0
   -1.4717   -0.4739    0.0458 C   0  0  0  0  0  0  0  0  0  0  0  0
   -1.9391    2.9119   -0.7845 H   0  0  0  0  0  0  0  0  0  0  0  0
    0.5783    2.8297   -0.1967 H   0  0  0  0  0  0  0  0  0  0  0  0
    1.6663    0.7255    0.5424 H   0  0  0  0  0  0  0  0  0  0  0  0
    0.3579   -1.3814    0.6935 H   0  0  0  0  0  0  0  0  0  0  0  0
   -2.0648   -1.3803    0.0982 H   0  0  0  0  0  0  0  0  0  0  0  0
   -4.2659    2.4374    0.1638 O   0  0  0  0  0  0  0  0  0  0  0  0
   -4.1699    3.6014   -0.3403 C   0  0  0  0  0  0  0  0  0  0  0  0
   -3.3174    4.0697   -1.1056 O   0  0  0  0  0  0  0  0  0  0  0  0
   -5.3337    4.5332    0.1135 C   0  0  0  0  0  0  0  0  0  0  0  0
   -5.1925    5.7809   -0.3573 F   0  0  0  0  0  0  0  0  0  0  0  0
   -6.5174    4.0555   -0.3274 F   0  0  0  0  0  0  0  0  0  0  0  0
   -5.3945    4.6035    1.4595 F   0  0  0  0  0  0  0  0  0  0  0  0
  1  8  1  0  0  0  0
  2  1  1  0  0  0  0
  3  2  2  0  0  0  0
  4  1  2  0  0  0  0
  4  5  1  0  0  0  0
  5  6  2  0  0  0  0
  6  7  1  0  0  0  0
  6 11  1  0  0  0  0
  7 12  1  0  0  0  0
  8 13  1  0  0  0  0
  8  7  2  0  0  0  0
  9  4  1  0  0  0  0
 10  5  1  0  0  0  0
 15 17  1  0  0  0  0
 15 14  1  0  0  0  0
 16 15  2  0  0  0  0
 17 20  1  0  0  0  0
 18 17  1  0  0  0  0
 19 17  1  0  0  0  0
M  RAD  2   3   2  14   2
M  END
