Coordinates from ORCA-job PhN2+~CF3COO-_B3LYPG-6-31G_dp-CH-Scan-d09-49-n800
 OpenBabel11261919373D

 20 19  0  0  0  0  0  0  0  0999 V2000
   -1.9244    0.3196   -0.1883 C   0  0  0  0  0  0  0  0  0  0  0  0
   -3.2839    0.0836   -0.3589 N   0  0  0  0  0  0  0  0  0  0  0  0
   -4.3864   -0.0305   -0.4902 N   0  0  0  0  0  0  0  0  0  0  0  0
   -1.5754    1.6731   -0.0446 C   0  0  0  0  0  0  0  0  0  0  0  0
   -0.1783    1.8192    0.1257 C   0  0  0  0  0  0  0  0  0  0  0  0
    0.7082    0.7447    0.1446 C   0  0  0  0  0  0  0  0  0  0  0  0
    0.2588   -0.5854   -0.0093 C   0  0  0  0  0  0  0  0  0  0  0  0
   -1.0878   -0.8255   -0.1815 C   0  0  0  0  0  0  0  0  0  0  0  0
   -2.6694    3.0402   -0.0597 H   0  0  0  0  0  0  0  0  0  0  0  0
    0.2296    2.8208    0.2502 H   0  0  0  0  0  0  0  0  0  0  0  0
    1.7724    0.9239    0.2816 H   0  0  0  0  0  0  0  0  0  0  0  0
    0.9631   -1.4103    0.0083 H   0  0  0  0  0  0  0  0  0  0  0  0
   -1.4876   -1.8275   -0.3048 H   0  0  0  0  0  0  0  0  0  0  0  0
   -5.0612    2.5692   -0.3238 O   0  0  0  0  0  0  0  0  0  0  0  0
   -4.5228    3.6538   -0.1904 C   0  0  0  0  0  0  0  0  0  0  0  0
   -3.2530    3.9194   -0.0508 O   0  0  0  0  0  0  0  0  0  0  0  0
   -5.3616    4.9543   -0.1731 C   0  0  0  0  0  0  0  0  0  0  0  0
   -5.0008    5.7634   -1.1891 F   0  0  0  0  0  0  0  0  0  0  0  0
   -6.6676    4.6869   -0.2940 F   0  0  0  0  0  0  0  0  0  0  0  0
   -5.1732    5.6260    0.9799 F   0  0  0  0  0  0  0  0  0  0  0  0
  1  8  2  0  0  0  0
  1  4  1  0  0  0  0
  2  1  1  0  0  0  0
  3  2  1  0  0  0  0
  4  5  2  0  0  0  0
  5  6  1  0  0  0  0
  5 10  1  0  0  0  0
  6 11  1  0  0  0  0
  7 12  1  0  0  0  0
  7  6  2  0  0  0  0
  8  7  1  0  0  0  0
  9 16  1  0  0  0  0
 13  8  1  0  0  0  0
 14 15  2  0  0  0  0
 15 17  1  0  0  0  0
 15 16  1  0  0  0  0
 17 20  1  0  0  0  0
 18 17  1  0  0  0  0
 19 17  1  0  0  0  0
M  RAD  3   2   2   3   3   4   2
M  END
