Coordinates from ORCA-job PhN2+~CF3COO-_B3LYPG-6-31G_dp-CH-Scan-d09-49-n800
 OpenBabel11261919373D

 20 19  0  0  0  0  0  0  0  0999 V2000
   -1.6645    0.2267   -0.1538 C   0  0  0  0  0  0  0  0  0  0  0  0
   -3.0458    0.1440   -0.3006 N   0  0  0  0  0  0  0  0  0  0  0  0
   -4.1579    0.1286   -0.4141 N   0  0  0  0  0  0  0  0  0  0  0  0
   -1.1938    1.5408    0.0063 C   0  0  0  0  0  0  0  0  0  0  0  0
    0.2203    1.5302    0.1508 C   0  0  0  0  0  0  0  0  0  0  0  0
    0.9914    0.3716    0.1322 C   0  0  0  0  0  0  0  0  0  0  0  0
    0.4071   -0.9070   -0.0372 C   0  0  0  0  0  0  0  0  0  0  0  0
   -0.9581   -1.0065   -0.1864 C   0  0  0  0  0  0  0  0  0  0  0  0
   -2.9199    3.8055    0.0145 H   0  0  0  0  0  0  0  0  0  0  0  0
    0.7408    2.4785    0.2856 H   0  0  0  0  0  0  0  0  0  0  0  0
    2.0717    0.4365    0.2512 H   0  0  0  0  0  0  0  0  0  0  0  0
    1.0267   -1.7978   -0.0490 H   0  0  0  0  0  0  0  0  0  0  0  0
   -1.4612   -1.9602   -0.3203 H   0  0  0  0  0  0  0  0  0  0  0  0
   -5.0648    2.8410   -0.3193 O   0  0  0  0  0  0  0  0  0  0  0  0
   -4.7838    4.0078   -0.1892 C   0  0  0  0  0  0  0  0  0  0  0  0
   -3.5775    4.5300   -0.0017 O   0  0  0  0  0  0  0  0  0  0  0  0
   -5.8449    5.1301   -0.2260 C   0  0  0  0  0  0  0  0  0  0  0  0
   -5.5914    5.9801   -1.2371 F   0  0  0  0  0  0  0  0  0  0  0  0
   -7.0639    4.6123   -0.3984 F   0  0  0  0  0  0  0  0  0  0  0  0
   -5.8321    5.8266    0.9246 F   0  0  0  0  0  0  0  0  0  0  0  0
  1  4  1  0  0  0  0
  2  1  1  0  0  0  0
  3  2  1  0  0  0  0
  4  5  2  0  0  0  0
  5 10  1  0  0  0  0
  6  5  1  0  0  0  0
  6 11  1  0  0  0  0
  7  6  2  0  0  0  0
  8  1  2  0  0  0  0
  8  7  1  0  0  0  0
 12  7  1  0  0  0  0
 13  8  1  0  0  0  0
 14 15  2  0  0  0  0
 15 16  1  0  0  0  0
 16  9  1  0  0  0  0
 17 15  1  0  0  0  0
 17 20  1  0  0  0  0
 18 17  1  0  0  0  0
 19 17  1  0  0  0  0
M  RAD  3   2   2   3   3   4   2
M  END
