Coordinates from ORCA-job PhN2+~CF3COO-_B3LYPG-6-31G_dp-CH-Scan-d09-49-n800
 OpenBabel11261919373D

 20 19  0  0  0  0  0  0  0  0999 V2000
   -1.5084    0.1750   -0.1465 C   0  0  0  0  0  0  0  0  0  0  0  0
   -2.8946    0.1932   -0.2892 N   0  0  0  0  0  0  0  0  0  0  0  0
   -4.0048    0.2658   -0.4069 N   0  0  0  0  0  0  0  0  0  0  0  0
   -0.9576    1.4583    0.0013 C   0  0  0  0  0  0  0  0  0  0  0  0
    0.4554    1.3486    0.1428 C   0  0  0  0  0  0  0  0  0  0  0  0
    1.1461    0.1409    0.1317 C   0  0  0  0  0  0  0  0  0  0  0  0
    0.4766   -1.0981   -0.0264 C   0  0  0  0  0  0  0  0  0  0  0  0
   -0.8923   -1.1063   -0.1718 C   0  0  0  0  0  0  0  0  0  0  0  0
   -3.0487    4.3125    0.0141 H   0  0  0  0  0  0  0  0  0  0  0  0
    1.0418    2.2597    0.2692 H   0  0  0  0  0  0  0  0  0  0  0  0
    2.2290    0.1324    0.2478 H   0  0  0  0  0  0  0  0  0  0  0  0
    1.0358   -2.0282   -0.0325 H   0  0  0  0  0  0  0  0  0  0  0  0
   -1.4601   -2.0244   -0.2969 H   0  0  0  0  0  0  0  0  0  0  0  0
   -5.0142    3.0453   -0.3084 O   0  0  0  0  0  0  0  0  0  0  0  0
   -4.9158    4.2409   -0.1945 C   0  0  0  0  0  0  0  0  0  0  0  0
   -3.7938    4.9383   -0.0123 O   0  0  0  0  0  0  0  0  0  0  0  0
   -6.1275    5.1972   -0.2389 C   0  0  0  0  0  0  0  0  0  0  0  0
   -5.9755    6.1009   -1.2226 F   0  0  0  0  0  0  0  0  0  0  0  0
   -7.2513    4.5109   -0.4560 F   0  0  0  0  0  0  0  0  0  0  0  0
   -6.2417    5.8561    0.9278 F   0  0  0  0  0  0  0  0  0  0  0  0
  1  4  1  0  0  0  0
  2  1  1  0  0  0  0
  3  2  1  0  0  0  0
  4  5  2  0  0  0  0
  5 10  1  0  0  0  0
  6  5  1  0  0  0  0
  6 11  1  0  0  0  0
  7  6  2  0  0  0  0
  8  1  2  0  0  0  0
  8  7  1  0  0  0  0
 12  7  1  0  0  0  0
 13  8  1  0  0  0  0
 14 15  2  0  0  0  0
 15 16  1  0  0  0  0
 16  9  1  0  0  0  0
 17 15  1  0  0  0  0
 17 20  1  0  0  0  0
 18 17  1  0  0  0  0
 19 17  1  0  0  0  0
M  RAD  3   2   2   3   3   4   2
M  END
