Coordinates from ORCA-job PhN2+~CF3COO-_B3LYPG-6-31G_dp-CH-Scan-d09-49-n800
 OpenBabel11261919373D

 20 19  0  0  0  0  0  0  0  0999 V2000
   -1.5427    0.1869   -0.1508 C   0  0  0  0  0  0  0  0  0  0  0  0
   -2.9281    0.1828   -0.2978 N   0  0  0  0  0  0  0  0  0  0  0  0
   -4.0396    0.2351   -0.4119 N   0  0  0  0  0  0  0  0  0  0  0  0
   -1.0094    1.4776   -0.0008 C   0  0  0  0  0  0  0  0  0  0  0  0
    0.4042    1.3890    0.1441 C   0  0  0  0  0  0  0  0  0  0  0  0
    1.1124    0.1913    0.1346 C   0  0  0  0  0  0  0  0  0  0  0  0
    0.4613   -1.0569   -0.0256 C   0  0  0  0  0  0  0  0  0  0  0  0
   -0.9069   -1.0848   -0.1747 C   0  0  0  0  0  0  0  0  0  0  0  0
   -3.0159    4.2013    0.0050 H   0  0  0  0  0  0  0  0  0  0  0  0
    0.9767    2.3085    0.2720 H   0  0  0  0  0  0  0  0  0  0  0  0
    2.1949    0.1987    0.2536 H   0  0  0  0  0  0  0  0  0  0  0  0
    1.0337   -1.9789   -0.0305 H   0  0  0  0  0  0  0  0  0  0  0  0
   -1.4609   -2.0111   -0.3017 H   0  0  0  0  0  0  0  0  0  0  0  0
   -5.0243    2.9975   -0.3110 O   0  0  0  0  0  0  0  0  0  0  0  0
   -4.8858    4.1893   -0.1956 C   0  0  0  0  0  0  0  0  0  0  0  0
   -3.7422    4.8499   -0.0182 O   0  0  0  0  0  0  0  0  0  0  0  0
   -6.0673    5.1832   -0.2326 C   0  0  0  0  0  0  0  0  0  0  0  0
   -5.8954    6.0793   -1.2201 F   0  0  0  0  0  0  0  0  0  0  0  0
   -7.2139    4.5317   -0.4390 F   0  0  0  0  0  0  0  0  0  0  0  0
   -6.1521    5.8484    0.9330 F   0  0  0  0  0  0  0  0  0  0  0  0
  1  4  1  0  0  0  0
  2  1  1  0  0  0  0
  3  2  1  0  0  0  0
  4  5  2  0  0  0  0
  5 10  1  0  0  0  0
  6  5  1  0  0  0  0
  6 11  1  0  0  0  0
  7  6  2  0  0  0  0
  8  1  2  0  0  0  0
  8  7  1  0  0  0  0
 12  7  1  0  0  0  0
 13  8  1  0  0  0  0
 14 15  2  0  0  0  0
 15 16  1  0  0  0  0
 16  9  1  0  0  0  0
 17 15  1  0  0  0  0
 17 20  1  0  0  0  0
 18 17  1  0  0  0  0
 19 17  1  0  0  0  0
M  RAD  3   2   2   3   3   4   2
M  END
