Coordinates from ORCA-job PhN2+~CF3COO-_B3LYPG-6-31G_dp-CH-Scan-d09-49-n800
 OpenBabel11261919373D

 20 19  0  0  0  0  0  0  0  0999 V2000
   -1.6214    0.2137   -0.1553 C   0  0  0  0  0  0  0  0  0  0  0  0
   -3.0044    0.1590   -0.3051 N   0  0  0  0  0  0  0  0  0  0  0  0
   -4.1165    0.1668   -0.4213 N   0  0  0  0  0  0  0  0  0  0  0  0
   -1.1282    1.5197    0.0019 C   0  0  0  0  0  0  0  0  0  0  0  0
    0.2859    1.4808    0.1497 C   0  0  0  0  0  0  0  0  0  0  0  0
    1.0344    0.3077    0.1364 C   0  0  0  0  0  0  0  0  0  0  0  0
    0.4261   -0.9604   -0.0308 C   0  0  0  0  0  0  0  0  0  0  0  0
   -0.9403   -1.0340   -0.1830 C   0  0  0  0  0  0  0  0  0  0  0  0
   -2.9508    3.9436    0.0026 H   0  0  0  0  0  0  0  0  0  0  0  0
    0.8252    2.4191    0.2830 H   0  0  0  0  0  0  0  0  0  0  0  0
    2.1156    0.3517    0.2579 H   0  0  0  0  0  0  0  0  0  0  0  0
    1.0288   -1.8628   -0.0386 H   0  0  0  0  0  0  0  0  0  0  0  0
   -1.4617   -1.9781   -0.3153 H   0  0  0  0  0  0  0  0  0  0  0  0
   -5.0506    2.8935   -0.3174 O   0  0  0  0  0  0  0  0  0  0  0  0
   -4.8194    4.0710   -0.1925 C   0  0  0  0  0  0  0  0  0  0  0  0
   -3.6324    4.6426   -0.0129 O   0  0  0  0  0  0  0  0  0  0  0  0
   -5.9249    5.1494   -0.2250 C   0  0  0  0  0  0  0  0  0  0  0  0
   -5.7062    6.0131   -1.2323 F   0  0  0  0  0  0  0  0  0  0  0  0
   -7.1211    4.5823   -0.3992 F   0  0  0  0  0  0  0  0  0  0  0  0
   -5.9394    5.8403    0.9287 F   0  0  0  0  0  0  0  0  0  0  0  0
  1  4  1  0  0  0  0
  2  1  1  0  0  0  0
  3  2  1  0  0  0  0
  4  5  2  0  0  0  0
  5 10  1  0  0  0  0
  6  5  1  0  0  0  0
  6 11  1  0  0  0  0
  7  6  2  0  0  0  0
  8  1  2  0  0  0  0
  8  7  1  0  0  0  0
 12  7  1  0  0  0  0
 13  8  1  0  0  0  0
 14 15  2  0  0  0  0
 15 16  1  0  0  0  0
 16  9  1  0  0  0  0
 17 15  1  0  0  0  0
 17 20  1  0  0  0  0
 18 17  1  0  0  0  0
 19 17  1  0  0  0  0
M  RAD  3   2   2   3   3   4   2
M  END
