Coordinates from ORCA-job PhN2+~CF3COO-_B3LYPG-6-31G_dp-CH-Scan-d09-49-n800
 OpenBabel11261919373D

 20 19  0  0  0  0  0  0  0  0999 V2000
   -1.9434    0.3287   -0.1937 C   0  0  0  0  0  0  0  0  0  0  0  0
   -3.3017    0.0868   -0.3687 N   0  0  0  0  0  0  0  0  0  0  0  0
   -4.4046   -0.0179   -0.5020 N   0  0  0  0  0  0  0  0  0  0  0  0
   -1.5989    1.6827   -0.0505 C   0  0  0  0  0  0  0  0  0  0  0  0
   -0.2054    1.8408    0.1247 C   0  0  0  0  0  0  0  0  0  0  0  0
    0.6873    0.7712    0.1484 C   0  0  0  0  0  0  0  0  0  0  0  0
    0.2458   -0.5609   -0.0052 C   0  0  0  0  0  0  0  0  0  0  0  0
   -1.0992   -0.8094   -0.1820 C   0  0  0  0  0  0  0  0  0  0  0  0
   -2.6352    2.9677   -0.0693 H   0  0  0  0  0  0  0  0  0  0  0  0
    0.1932    2.8459    0.2489 H   0  0  0  0  0  0  0  0  0  0  0  0
    1.7499    0.9570    0.2889 H   0  0  0  0  0  0  0  0  0  0  0  0
    0.9546   -1.3819    0.0162 H   0  0  0  0  0  0  0  0  0  0  0  0
   -1.4923   -1.8140   -0.3051 H   0  0  0  0  0  0  0  0  0  0  0  0
   -5.0611    2.5491   -0.3134 O   0  0  0  0  0  0  0  0  0  0  0  0
   -4.5015    3.6269   -0.1884 C   0  0  0  0  0  0  0  0  0  0  0  0
   -3.2316    3.8744   -0.0621 O   0  0  0  0  0  0  0  0  0  0  0  0
   -5.3279    4.9363   -0.1684 C   0  0  0  0  0  0  0  0  0  0  0  0
   -4.9681    5.7393   -1.1904 F   0  0  0  0  0  0  0  0  0  0  0  0
   -6.6388    4.6851   -0.2765 F   0  0  0  0  0  0  0  0  0  0  0  0
   -5.1225    5.6112    0.9806 F   0  0  0  0  0  0  0  0  0  0  0  0
  1  8  2  0  0  0  0
  1  4  1  0  0  0  0
  2  1  1  0  0  0  0
  3  2  1  0  0  0  0
  4  5  2  0  0  0  0
  5  6  1  0  0  0  0
  5 10  1  0  0  0  0
  6 11  1  0  0  0  0
  7 12  1  0  0  0  0
  7  6  2  0  0  0  0
  8  7  1  0  0  0  0
  9 16  1  0  0  0  0
 13  8  1  0  0  0  0
 14 15  2  0  0  0  0
 15 17  1  0  0  0  0
 15 16  1  0  0  0  0
 17 20  1  0  0  0  0
 18 17  1  0  0  0  0
 19 17  1  0  0  0  0
M  RAD  3   2   2   3   3   4   2
M  END
