Coordinates from ORCA-job PhN2+~CF3COO-_B3LYPG-6-31G_dp-CH-Scan-d09-49-n800
 OpenBabel11261919373D

 20 19  0  0  0  0  0  0  0  0999 V2000
   -1.3939    0.1468   -0.1314 C   0  0  0  0  0  0  0  0  0  0  0  0
   -2.7789    0.2476   -0.2616 N   0  0  0  0  0  0  0  0  0  0  0  0
   -3.8846    0.3918   -0.3578 N   0  0  0  0  0  0  0  0  0  0  0  0
   -0.7769    1.3970    0.0320 C   0  0  0  0  0  0  0  0  0  0  0  0
    0.6301    1.2071    0.1601 C   0  0  0  0  0  0  0  0  0  0  0  0
    1.2541   -0.0356    0.1245 C   0  0  0  0  0  0  0  0  0  0  0  0
    0.5174   -1.2345   -0.0479 C   0  0  0  0  0  0  0  0  0  0  0  0
   -0.8508   -1.1665   -0.1823 C   0  0  0  0  0  0  0  0  0  0  0  0
   -3.1673    4.7144    0.0613 H   0  0  0  0  0  0  0  0  0  0  0  0
    1.2668    2.0827    0.2958 H   0  0  0  0  0  0  0  0  0  0  0  0
    2.3359   -0.1051    0.2317 H   0  0  0  0  0  0  0  0  0  0  0  0
    1.0259   -2.1930   -0.0735 H   0  0  0  0  0  0  0  0  0  0  0  0
   -1.4687   -2.0502   -0.3177 H   0  0  0  0  0  0  0  0  0  0  0  0
   -4.9557    3.2198   -0.2771 O   0  0  0  0  0  0  0  0  0  0  0  0
   -5.0071    4.4189   -0.1819 C   0  0  0  0  0  0  0  0  0  0  0  0
   -3.9782    5.2493    0.0097 O   0  0  0  0  0  0  0  0  0  0  0  0
   -6.3227    5.2228   -0.2688 C   0  0  0  0  0  0  0  0  0  0  0  0
   -6.2691    6.0948   -1.2907 F   0  0  0  0  0  0  0  0  0  0  0  0
   -7.3543    4.3987   -0.4602 F   0  0  0  0  0  0  0  0  0  0  0  0
   -6.5235    5.9122    0.8676 F   0  0  0  0  0  0  0  0  0  0  0  0
  1  4  1  0  0  0  0
  2  1  1  0  0  0  0
  3  2  1  0  0  0  0
  4  5  2  0  0  0  0
  5 10  1  0  0  0  0
  6  5  1  0  0  0  0
  6 11  1  0  0  0  0
  7  6  2  0  0  0  0
  8  1  2  0  0  0  0
  8  7  1  0  0  0  0
 12  7  1  0  0  0  0
 13  8  1  0  0  0  0
 14 15  2  0  0  0  0
 15 16  1  0  0  0  0
 16  9  1  0  0  0  0
 17 15  1  0  0  0  0
 17 20  1  0  0  0  0
 18 17  1  0  0  0  0
 19 17  1  0  0  0  0
M  RAD  3   2   2   3   3   4   2
M  END
