Coordinates from ORCA-job PhN2+~CF3COO-_B3LYPG-6-31G_dp-CH-Scan-d09-49-n800
 OpenBabel11261919373D

 20 19  0  0  0  0  0  0  0  0999 V2000
   -1.3958    0.1469   -0.1311 C   0  0  0  0  0  0  0  0  0  0  0  0
   -2.7810    0.2458   -0.2607 N   0  0  0  0  0  0  0  0  0  0  0  0
   -3.8868    0.3882   -0.3579 N   0  0  0  0  0  0  0  0  0  0  0  0
   -0.7800    1.3979    0.0313 C   0  0  0  0  0  0  0  0  0  0  0  0
    0.6272    1.2096    0.1588 C   0  0  0  0  0  0  0  0  0  0  0  0
    1.2526   -0.0324    0.1237 C   0  0  0  0  0  0  0  0  0  0  0  0
    0.5171   -1.2322   -0.0475 C   0  0  0  0  0  0  0  0  0  0  0  0
   -0.8512   -1.1658   -0.1813 C   0  0  0  0  0  0  0  0  0  0  0  0
   -3.1656    4.7064    0.0632 H   0  0  0  0  0  0  0  0  0  0  0  0
    1.2630    2.0861    0.2936 H   0  0  0  0  0  0  0  0  0  0  0  0
    2.3345   -0.1006    0.2304 H   0  0  0  0  0  0  0  0  0  0  0  0
    1.0267   -2.1902   -0.0727 H   0  0  0  0  0  0  0  0  0  0  0  0
   -1.4682   -2.0503   -0.3158 H   0  0  0  0  0  0  0  0  0  0  0  0
   -4.9580    3.2165   -0.2779 O   0  0  0  0  0  0  0  0  0  0  0  0
   -5.0060    4.4158   -0.1819 C   0  0  0  0  0  0  0  0  0  0  0  0
   -3.9752    5.2432    0.0111 O   0  0  0  0  0  0  0  0  0  0  0  0
   -6.3194    5.2233   -0.2691 C   0  0  0  0  0  0  0  0  0  0  0  0
   -6.2620    6.0975   -1.2888 F   0  0  0  0  0  0  0  0  0  0  0  0
   -7.3529    4.4024   -0.4641 F   0  0  0  0  0  0  0  0  0  0  0  0
   -6.5202    5.9106    0.8686 F   0  0  0  0  0  0  0  0  0  0  0  0
  1  4  1  0  0  0  0
  2  1  1  0  0  0  0
  3  2  1  0  0  0  0
  4  5  2  0  0  0  0
  5 10  1  0  0  0  0
  6  5  1  0  0  0  0
  6 11  1  0  0  0  0
  7  6  2  0  0  0  0
  8  1  2  0  0  0  0
  8  7  1  0  0  0  0
 12  7  1  0  0  0  0
 13  8  1  0  0  0  0
 14 15  2  0  0  0  0
 15 16  1  0  0  0  0
 16  9  1  0  0  0  0
 17 15  1  0  0  0  0
 17 20  1  0  0  0  0
 18 17  1  0  0  0  0
 19 17  1  0  0  0  0
M  RAD  3   2   2   3   3   4   2
M  END
