Coordinates from ORCA-job PhN2+~CF3COO-_B3LYPG-6-31G_dp-CH-Scan-d09-49-n800
 OpenBabel11261919373D

 20 19  0  0  0  0  0  0  0  0999 V2000
   -1.7471    0.2550   -0.1597 C   0  0  0  0  0  0  0  0  0  0  0  0
   -3.1233    0.1215   -0.3095 N   0  0  0  0  0  0  0  0  0  0  0  0
   -4.2332    0.0645   -0.4258 N   0  0  0  0  0  0  0  0  0  0  0  0
   -1.3166    1.5837   -0.0045 C   0  0  0  0  0  0  0  0  0  0  0  0
    0.0951    1.6240    0.1431 C   0  0  0  0  0  0  0  0  0  0  0  0
    0.9050    0.4918    0.1316 C   0  0  0  0  0  0  0  0  0  0  0  0
    0.3641   -0.8055   -0.0326 C   0  0  0  0  0  0  0  0  0  0  0  0
   -0.9969   -0.9516   -0.1842 C   0  0  0  0  0  0  0  0  0  0  0  0
   -2.8533    3.5582   -0.0023 H   0  0  0  0  0  0  0  0  0  0  0  0
    0.5811    2.5905    0.2743 H   0  0  0  0  0  0  0  0  0  0  0  0
    1.9820    0.5942    0.2523 H   0  0  0  0  0  0  0  0  0  0  0  0
    1.0127   -1.6754   -0.0386 H   0  0  0  0  0  0  0  0  0  0  0  0
   -1.4669   -1.9224   -0.3143 H   0  0  0  0  0  0  0  0  0  0  0  0
   -5.0750    2.7477   -0.3299 O   0  0  0  0  0  0  0  0  0  0  0  0
   -4.7072    3.8913   -0.1917 C   0  0  0  0  0  0  0  0  0  0  0  0
   -3.4712    4.3266   -0.0088 O   0  0  0  0  0  0  0  0  0  0  0  0
   -5.6915    5.0825   -0.2124 C   0  0  0  0  0  0  0  0  0  0  0  0
   -5.3854    5.9263   -1.2148 F   0  0  0  0  0  0  0  0  0  0  0  0
   -6.9442    4.6516   -0.3862 F   0  0  0  0  0  0  0  0  0  0  0  0
   -5.6297    5.7644    0.9458 F   0  0  0  0  0  0  0  0  0  0  0  0
  1  4  1  0  0  0  0
  2  1  1  0  0  0  0
  3  2  1  0  0  0  0
  4  5  2  0  0  0  0
  5 10  1  0  0  0  0
  6  5  1  0  0  0  0
  6 11  1  0  0  0  0
  7  6  2  0  0  0  0
  8  1  2  0  0  0  0
  8  7  1  0  0  0  0
 12  7  1  0  0  0  0
 13  8  1  0  0  0  0
 14 15  2  0  0  0  0
 15 16  1  0  0  0  0
 16  9  1  0  0  0  0
 17 15  1  0  0  0  0
 17 20  1  0  0  0  0
 18 17  1  0  0  0  0
 19 17  1  0  0  0  0
M  RAD  3   2   2   3   3   4   2
M  END
