Coordinates from ORCA-job PhN2+~CF3COO-_B3LYPG-6-31G_dp-CH-Scan-d09-49-n800
 OpenBabel11261919373D

 20 19  0  0  0  0  0  0  0  0999 V2000
   -1.4995    0.1721   -0.1458 C   0  0  0  0  0  0  0  0  0  0  0  0
   -2.8858    0.1960   -0.2880 N   0  0  0  0  0  0  0  0  0  0  0  0
   -3.9958    0.2739   -0.4046 N   0  0  0  0  0  0  0  0  0  0  0  0
   -0.9442    1.4533    0.0022 C   0  0  0  0  0  0  0  0  0  0  0  0
    0.4685    1.3381    0.1431 C   0  0  0  0  0  0  0  0  0  0  0  0
    1.1547    0.1279    0.1314 C   0  0  0  0  0  0  0  0  0  0  0  0
    0.4805   -1.1086   -0.0268 C   0  0  0  0  0  0  0  0  0  0  0  0
   -0.8884   -1.1117   -0.1717 C   0  0  0  0  0  0  0  0  0  0  0  0
   -3.0574    4.3410    0.0158 H   0  0  0  0  0  0  0  0  0  0  0  0
    1.0585    2.2469    0.2695 H   0  0  0  0  0  0  0  0  0  0  0  0
    2.2376    0.1152    0.2472 H   0  0  0  0  0  0  0  0  0  0  0  0
    1.0363   -2.0408   -0.0333 H   0  0  0  0  0  0  0  0  0  0  0  0
   -1.4598   -2.0276   -0.2968 H   0  0  0  0  0  0  0  0  0  0  0  0
   -5.0118    3.0578   -0.3072 O   0  0  0  0  0  0  0  0  0  0  0  0
   -4.9236    4.2542   -0.1943 C   0  0  0  0  0  0  0  0  0  0  0  0
   -3.8072    4.9609   -0.0117 O   0  0  0  0  0  0  0  0  0  0  0  0
   -6.1429    5.2007   -0.2403 C   0  0  0  0  0  0  0  0  0  0  0  0
   -5.9969    6.1052   -1.2243 F   0  0  0  0  0  0  0  0  0  0  0  0
   -7.2608    4.5053   -0.4584 F   0  0  0  0  0  0  0  0  0  0  0  0
   -6.2635    5.8591    0.9260 F   0  0  0  0  0  0  0  0  0  0  0  0
  1  4  1  0  0  0  0
  2  1  1  0  0  0  0
  3  2  1  0  0  0  0
  4  5  2  0  0  0  0
  5 10  1  0  0  0  0
  6  5  1  0  0  0  0
  6 11  1  0  0  0  0
  7  6  2  0  0  0  0
  8  1  2  0  0  0  0
  8  7  1  0  0  0  0
 12  7  1  0  0  0  0
 13  8  1  0  0  0  0
 14 15  2  0  0  0  0
 15 16  1  0  0  0  0
 16  9  1  0  0  0  0
 17 15  1  0  0  0  0
 17 20  1  0  0  0  0
 18 17  1  0  0  0  0
 19 17  1  0  0  0  0
M  RAD  3   2   2   3   3   4   2
M  END
