Coordinates from ORCA-job PhN2+~CF3COO-_B3LYPG-6-31G_dp-CH-Scan-d09-49-n800
 OpenBabel11261919373D

 20 19  0  0  0  0  0  0  0  0999 V2000
   -1.3052    0.7204   -1.2204 C   0  0  0  0  0  0  0  0  0  0  0  0
   -2.1789    0.8460   -2.2999 N   0  0  0  0  0  0  0  0  0  0  0  0
   -2.8122    0.9622   -3.2149 N   0  0  0  0  0  0  0  0  0  0  0  0
    0.0217    0.9765   -1.5963 C   0  0  0  0  0  0  0  0  0  0  0  0
    0.8641    0.8221   -0.4559 C   0  0  0  0  0  0  0  0  0  0  0  0
    0.4031    0.4627    0.8066 C   0  0  0  0  0  0  0  0  0  0  0  0
   -0.9728    0.2293    1.0601 C   0  0  0  0  0  0  0  0  0  0  0  0
   -1.8768    0.3584    0.0296 C   0  0  0  0  0  0  0  0  0  0  0  0
   -2.8694    4.7364   -0.6579 H   0  0  0  0  0  0  0  0  0  0  0  0
    1.9363    0.9915   -0.5691 H   0  0  0  0  0  0  0  0  0  0  0  0
    1.1052    0.3547    1.6324 H   0  0  0  0  0  0  0  0  0  0  0  0
   -1.3081   -0.0477    2.0545 H   0  0  0  0  0  0  0  0  0  0  0  0
   -2.9442    0.2047    0.1596 H   0  0  0  0  0  0  0  0  0  0  0  0
   -4.0541    2.7149   -0.8672 O   0  0  0  0  0  0  0  0  0  0  0  0
   -4.3559    3.6781   -0.2084 C   0  0  0  0  0  0  0  0  0  0  0  0
   -3.6686    4.8182   -0.1093 O   0  0  0  0  0  0  0  0  0  0  0  0
   -5.6352    3.7528    0.6536 C   0  0  0  0  0  0  0  0  0  0  0  0
   -6.4351    4.7352    0.2074 F   0  0  0  0  0  0  0  0  0  0  0  0
   -6.2960    2.5955    0.5933 F   0  0  0  0  0  0  0  0  0  0  0  0
   -5.3194    4.0071    1.9340 F   0  0  0  0  0  0  0  0  0  0  0  0
  1  8  1  0  0  0  0
  2  1  1  0  0  0  0
  3  2  1  0  0  0  0
  4  1  2  0  0  0  0
  4  5  1  0  0  0  0
  5  6  2  0  0  0  0
  6  7  1  0  0  0  0
  6 11  1  0  0  0  0
  7 12  1  0  0  0  0
  8 13  1  0  0  0  0
  8  7  2  0  0  0  0
  9 16  1  0  0  0  0
 10  5  1  0  0  0  0
 14 15  2  0  0  0  0
 15 16  1  0  0  0  0
 15 17  1  0  0  0  0
 17 20  1  0  0  0  0
 18 17  1  0  0  0  0
 19 17  1  0  0  0  0
M  RAD  3   2   2   3   3   4   2
M  END
