Coordinates from ORCA-job PhN2+~CF3COO-_B3LYPG-6-31G_dp-CH-Scan-d09-49-n800
 OpenBabel11261919373D

 20 19  0  0  0  0  0  0  0  0999 V2000
   -1.3219    0.1368   -0.1563 C   0  0  0  0  0  0  0  0  0  0  0  0
   -2.6996    0.2899   -0.3133 N   0  0  0  0  0  0  0  0  0  0  0  0
   -3.7965    0.4785   -0.4331 N   0  0  0  0  0  0  0  0  0  0  0  0
   -0.6624    1.3652    0.0035 C   0  0  0  0  0  0  0  0  0  0  0  0
    0.7342    1.1243    0.1604 C   0  0  0  0  0  0  0  0  0  0  0  0
    1.3114   -0.1413    0.1525 C   0  0  0  0  0  0  0  0  0  0  0  0
    0.5333   -1.3140   -0.0193 C   0  0  0  0  0  0  0  0  0  0  0  0
   -0.8285   -1.1968   -0.1811 C   0  0  0  0  0  0  0  0  0  0  0  0
   -3.2434    4.9465    0.0046 H   0  0  0  0  0  0  0  0  0  0  0  0
    1.4008    1.9772    0.2973 H   0  0  0  0  0  0  0  0  0  0  0  0
    2.3875   -0.2501    0.2817 H   0  0  0  0  0  0  0  0  0  0  0  0
    1.0059   -2.2911   -0.0231 H   0  0  0  0  0  0  0  0  0  0  0  0
   -1.4767   -2.0584   -0.3178 H   0  0  0  0  0  0  0  0  0  0  0  0
   -4.9274    3.3302   -0.2855 O   0  0  0  0  0  0  0  0  0  0  0  0
   -5.0630    4.5224   -0.1895 C   0  0  0  0  0  0  0  0  0  0  0  0
   -4.0902    5.4243   -0.0253 O   0  0  0  0  0  0  0  0  0  0  0  0
   -6.4339    5.2309   -0.2437 C   0  0  0  0  0  0  0  0  0  0  0  0
   -6.4717    6.0922   -1.2754 F   0  0  0  0  0  0  0  0  0  0  0  0
   -7.4101    4.3342   -0.3962 F   0  0  0  0  0  0  0  0  0  0  0  0
   -6.6493    5.9179    0.8912 F   0  0  0  0  0  0  0  0  0  0  0  0
  1  4  1  0  0  0  0
  2  1  1  0  0  0  0
  3  2  1  0  0  0  0
  4  5  2  0  0  0  0
  5 10  1  0  0  0  0
  6  5  1  0  0  0  0
  6 11  1  0  0  0  0
  7  6  2  0  0  0  0
  8  1  2  0  0  0  0
  8  7  1  0  0  0  0
 12  7  1  0  0  0  0
 13  8  1  0  0  0  0
 14 15  2  0  0  0  0
 15 16  1  0  0  0  0
 16  9  1  0  0  0  0
 17 15  1  0  0  0  0
 17 20  1  0  0  0  0
 18 17  1  0  0  0  0
 19 17  1  0  0  0  0
M  RAD  3   2   2   3   3   4   2
M  END
