Coordinates from ORCA-job PhN2+~CF3COO-_B3LYPG-6-31G_dp-CH-Scan-d09-49-n800
 OpenBabel11261919373D

 20 19  0  0  0  0  0  0  0  0999 V2000
   -1.5283    0.1819   -0.1498 C   0  0  0  0  0  0  0  0  0  0  0  0
   -2.9139    0.1871   -0.2961 N   0  0  0  0  0  0  0  0  0  0  0  0
   -4.0252    0.2478   -0.4091 N   0  0  0  0  0  0  0  0  0  0  0  0
   -0.9877    1.4695   -0.0003 C   0  0  0  0  0  0  0  0  0  0  0  0
    0.4255    1.3720    0.1439 C   0  0  0  0  0  0  0  0  0  0  0  0
    1.1265    0.1701    0.1342 C   0  0  0  0  0  0  0  0  0  0  0  0
    0.4677   -1.0743   -0.0255 C   0  0  0  0  0  0  0  0  0  0  0  0
   -0.9007   -1.0939   -0.1739 C   0  0  0  0  0  0  0  0  0  0  0  0
   -3.0291    4.2485    0.0067 H   0  0  0  0  0  0  0  0  0  0  0  0
    1.0038    2.2880    0.2713 H   0  0  0  0  0  0  0  0  0  0  0  0
    2.2091    0.1709    0.2526 H   0  0  0  0  0  0  0  0  0  0  0  0
    1.0346   -1.9997   -0.0306 H   0  0  0  0  0  0  0  0  0  0  0  0
   -1.4604   -2.0168   -0.3005 H   0  0  0  0  0  0  0  0  0  0  0  0
   -5.0198    3.0175   -0.3097 O   0  0  0  0  0  0  0  0  0  0  0  0
   -4.8982    4.2110   -0.1957 C   0  0  0  0  0  0  0  0  0  0  0  0
   -3.7634    4.8875   -0.0180 O   0  0  0  0  0  0  0  0  0  0  0  0
   -6.0928    5.1891   -0.2346 C   0  0  0  0  0  0  0  0  0  0  0  0
   -5.9302    6.0887   -1.2204 F   0  0  0  0  0  0  0  0  0  0  0  0
   -7.2300    4.5227   -0.4446 F   0  0  0  0  0  0  0  0  0  0  0  0
   -6.1890    5.8514    0.9318 F   0  0  0  0  0  0  0  0  0  0  0  0
  1  4  1  0  0  0  0
  2  1  1  0  0  0  0
  3  2  1  0  0  0  0
  4  5  2  0  0  0  0
  5 10  1  0  0  0  0
  6  5  1  0  0  0  0
  6 11  1  0  0  0  0
  7  6  2  0  0  0  0
  8  1  2  0  0  0  0
  8  7  1  0  0  0  0
 12  7  1  0  0  0  0
 13  8  1  0  0  0  0
 14 15  2  0  0  0  0
 15 16  1  0  0  0  0
 16  9  1  0  0  0  0
 17 15  1  0  0  0  0
 17 20  1  0  0  0  0
 18 17  1  0  0  0  0
 19 17  1  0  0  0  0
M  RAD  3   2   2   3   3   4   2
M  END
