Coordinates from ORCA-job PhN2+~CF3COO-_B3LYPG-6-31G_dp-CH-Scan-d09-49-n800
 OpenBabel11261919373D

 20 19  0  0  0  0  0  0  0  0999 V2000
   -1.3534    0.1407   -0.1427 C   0  0  0  0  0  0  0  0  0  0  0  0
   -2.7348    0.2719   -0.2854 N   0  0  0  0  0  0  0  0  0  0  0  0
   -3.8359    0.4421   -0.3931 N   0  0  0  0  0  0  0  0  0  0  0  0
   -0.7123    1.3783    0.0228 C   0  0  0  0  0  0  0  0  0  0  0  0
    0.6893    1.1589    0.1645 C   0  0  0  0  0  0  0  0  0  0  0  0
    1.2871   -0.0968    0.1388 C   0  0  0  0  0  0  0  0  0  0  0  0
    0.5268   -1.2805   -0.0371 C   0  0  0  0  0  0  0  0  0  0  0  0
   -0.8383   -1.1841   -0.1848 C   0  0  0  0  0  0  0  0  0  0  0  0
   -3.2092    4.8535    0.0346 H   0  0  0  0  0  0  0  0  0  0  0  0
    1.3432    2.0213    0.3036 H   0  0  0  0  0  0  0  0  0  0  0  0
    2.3661   -0.1890    0.2566 H   0  0  0  0  0  0  0  0  0  0  0  0
    1.0152   -2.2496   -0.0550 H   0  0  0  0  0  0  0  0  0  0  0  0
   -1.4735   -2.0550   -0.3235 H   0  0  0  0  0  0  0  0  0  0  0  0
   -4.9340    3.2840   -0.2779 O   0  0  0  0  0  0  0  0  0  0  0  0
   -5.0372    4.4797   -0.1841 C   0  0  0  0  0  0  0  0  0  0  0  0
   -4.0422    5.3542   -0.0071 O   0  0  0  0  0  0  0  0  0  0  0  0
   -6.3870    5.2260   -0.2578 C   0  0  0  0  0  0  0  0  0  0  0  0
   -6.3885    6.0826   -1.2941 F   0  0  0  0  0  0  0  0  0  0  0  0
   -7.3860    4.3561   -0.4176 F   0  0  0  0  0  0  0  0  0  0  0  0
   -6.5967    5.9247    0.8710 F   0  0  0  0  0  0  0  0  0  0  0  0
  1  4  1  0  0  0  0
  2  1  1  0  0  0  0
  3  2  1  0  0  0  0
  4  5  2  0  0  0  0
  5 10  1  0  0  0  0
  6  5  1  0  0  0  0
  6 11  1  0  0  0  0
  7  6  2  0  0  0  0
  8  1  2  0  0  0  0
  8  7  1  0  0  0  0
 12  7  1  0  0  0  0
 13  8  1  0  0  0  0
 14 15  2  0  0  0  0
 15 16  1  0  0  0  0
 16  9  1  0  0  0  0
 17 15  1  0  0  0  0
 17 20  1  0  0  0  0
 18 17  1  0  0  0  0
 19 17  1  0  0  0  0
M  RAD  3   2   2   3   3   4   2
M  END
