Coordinates from ORCA-job PhN2+~CF3COO-_B3LYPG-6-31G_dp-CH-Scan-d09-49-n800
 OpenBabel11261919373D

 20 19  0  0  0  0  0  0  0  0999 V2000
   -1.5637    0.1941   -0.1528 C   0  0  0  0  0  0  0  0  0  0  0  0
   -2.9484    0.1761   -0.3014 N   0  0  0  0  0  0  0  0  0  0  0  0
   -4.0604    0.2162   -0.4151 N   0  0  0  0  0  0  0  0  0  0  0  0
   -1.0411    1.4891   -0.0013 C   0  0  0  0  0  0  0  0  0  0  0  0
    0.3727    1.4137    0.1451 C   0  0  0  0  0  0  0  0  0  0  0  0
    1.0917    0.2224    0.1356 C   0  0  0  0  0  0  0  0  0  0  0  0
    0.4520   -1.0313   -0.0260 C   0  0  0  0  0  0  0  0  0  0  0  0
   -0.9158   -1.0715   -0.1766 C   0  0  0  0  0  0  0  0  0  0  0  0
   -2.9972    4.1320    0.0024 H   0  0  0  0  0  0  0  0  0  0  0  0
    0.9364    2.3384    0.2742 H   0  0  0  0  0  0  0  0  0  0  0  0
    2.1739    0.2396    0.2559 H   0  0  0  0  0  0  0  0  0  0  0  0
    1.0325   -1.9482   -0.0309 H   0  0  0  0  0  0  0  0  0  0  0  0
   -1.4611   -2.0027   -0.3048 H   0  0  0  0  0  0  0  0  0  0  0  0
   -5.0313    2.9692   -0.3126 O   0  0  0  0  0  0  0  0  0  0  0  0
   -4.8680    4.1577   -0.1953 C   0  0  0  0  0  0  0  0  0  0  0  0
   -3.7117    4.7946   -0.0187 O   0  0  0  0  0  0  0  0  0  0  0  0
   -6.0299    5.1747   -0.2298 C   0  0  0  0  0  0  0  0  0  0  0  0
   -5.8454    6.0637   -1.2214 F   0  0  0  0  0  0  0  0  0  0  0  0
   -7.1903    4.5453   -0.4283 F   0  0  0  0  0  0  0  0  0  0  0  0
   -6.0962    5.8458    0.9336 F   0  0  0  0  0  0  0  0  0  0  0  0
  1  4  1  0  0  0  0
  2  1  1  0  0  0  0
  3  2  1  0  0  0  0
  4  5  2  0  0  0  0
  5 10  1  0  0  0  0
  6  5  1  0  0  0  0
  6 11  1  0  0  0  0
  7  6  2  0  0  0  0
  8  1  2  0  0  0  0
  8  7  1  0  0  0  0
 12  7  1  0  0  0  0
 13  8  1  0  0  0  0
 14 15  2  0  0  0  0
 15 16  1  0  0  0  0
 16  9  1  0  0  0  0
 17 15  1  0  0  0  0
 17 20  1  0  0  0  0
 18 17  1  0  0  0  0
 19 17  1  0  0  0  0
M  RAD  3   2   2   3   3   4   2
M  END
