Coordinates from ORCA-job PhN2+~CF3COO-_B3LYPG-6-31G_dp-CH-Scan-d09-49-n800
 OpenBabel11261919373D

 20 19  0  0  0  0  0  0  0  0999 V2000
   -1.2410    0.1320   -0.2348 C   0  0  0  0  0  0  0  0  0  0  0  0
   -2.6003    0.3375   -0.4743 N   0  0  0  0  0  0  0  0  0  0  0  0
   -3.6788    0.5710   -0.6628 N   0  0  0  0  0  0  0  0  0  0  0  0
   -0.5376    1.3383   -0.0993 C   0  0  0  0  0  0  0  0  0  0  0  0
    0.8369    1.0481    0.1456 C   0  0  0  0  0  0  0  0  0  0  0  0
    1.3566   -0.2393    0.2321 C   0  0  0  0  0  0  0  0  0  0  0  0
    0.5373   -1.3859    0.0751 C   0  0  0  0  0  0  0  0  0  0  0  0
   -0.8074   -1.2206   -0.1678 C   0  0  0  0  0  0  0  0  0  0  0  0
   -3.3265    5.1325   -0.1889 H   0  0  0  0  0  0  0  0  0  0  0  0
    1.5325    1.8785    0.2766 H   0  0  0  0  0  0  0  0  0  0  0  0
    2.4182   -0.3862    0.4263 H   0  0  0  0  0  0  0  0  0  0  0  0
    0.9657   -2.3806    0.1458 H   0  0  0  0  0  0  0  0  0  0  0  0
   -1.4849   -2.0603   -0.2987 H   0  0  0  0  0  0  0  0  0  0  0  0
   -4.9369    3.4285   -0.3481 O   0  0  0  0  0  0  0  0  0  0  0  0
   -5.1300    4.6104   -0.2281 C   0  0  0  0  0  0  0  0  0  0  0  0
   -4.1969    5.5643   -0.1406 O   0  0  0  0  0  0  0  0  0  0  0  0
   -6.5367    5.2420   -0.1501 C   0  0  0  0  0  0  0  0  0  0  0  0
   -6.7020    6.1381   -1.1383 F   0  0  0  0  0  0  0  0  0  0  0  0
   -7.4724    4.2979   -0.2642 F   0  0  0  0  0  0  0  0  0  0  0  0
   -6.6974    5.8727    1.0262 F   0  0  0  0  0  0  0  0  0  0  0  0
  1  8  2  0  0  0  0
  1  4  1  0  0  0  0
  2  1  1  0  0  0  0
  3  2  1  0  0  0  0
  4  5  2  0  0  0  0
  5  6  1  0  0  0  0
  5 10  1  0  0  0  0
  6 11  1  0  0  0  0
  7 12  1  0  0  0  0
  7  6  2  0  0  0  0
  8  7  1  0  0  0  0
  9 16  1  0  0  0  0
 13  8  1  0  0  0  0
 14 15  2  0  0  0  0
 15 17  1  0  0  0  0
 15 16  1  0  0  0  0
 17 20  1  0  0  0  0
 18 17  1  0  0  0  0
 19 17  1  0  0  0  0
M  RAD  3   2   2   3   3   4   2
M  END
