Coordinates from ORCA-job PhN2+~CF3COO-_B3LYPG-6-31G_dp-CH-Scan-d09-49-n800
 OpenBabel11261919373D

 20 19  0  0  0  0  0  0  0  0999 V2000
   -1.3241    0.7138   -1.2183 C   0  0  0  0  0  0  0  0  0  0  0  0
   -2.2049    0.8195   -2.2944 N   0  0  0  0  0  0  0  0  0  0  0  0
   -2.8492    0.9150   -3.2040 N   0  0  0  0  0  0  0  0  0  0  0  0
   -0.0049    0.9999   -1.5988 C   0  0  0  0  0  0  0  0  0  0  0  0
    0.8447    0.8651   -0.4611 C   0  0  0  0  0  0  0  0  0  0  0  0
    0.3965    0.4955    0.8030 C   0  0  0  0  0  0  0  0  0  0  0  0
   -0.9727    0.2312    1.0614 C   0  0  0  0  0  0  0  0  0  0  0  0
   -1.8829    0.3396    0.0339 C   0  0  0  0  0  0  0  0  0  0  0  0
   -2.8067    4.6835   -0.5993 H   0  0  0  0  0  0  0  0  0  0  0  0
    1.9123    1.0589   -0.5781 H   0  0  0  0  0  0  0  0  0  0  0  0
    1.1039    0.4035    1.6263 H   0  0  0  0  0  0  0  0  0  0  0  0
   -1.2983   -0.0529    2.0570 H   0  0  0  0  0  0  0  0  0  0  0  0
   -2.9461    0.1616    0.1677 H   0  0  0  0  0  0  0  0  0  0  0  0
   -4.0505    2.7090   -0.8829 O   0  0  0  0  0  0  0  0  0  0  0  0
   -4.3359    3.6652   -0.2066 C   0  0  0  0  0  0  0  0  0  0  0  0
   -3.6147    4.7797   -0.0660 O   0  0  0  0  0  0  0  0  0  0  0  0
   -5.6282    3.7588    0.6338 C   0  0  0  0  0  0  0  0  0  0  0  0
   -6.3788    4.7907    0.2147 F   0  0  0  0  0  0  0  0  0  0  0  0
   -6.3343    2.6333    0.5146 F   0  0  0  0  0  0  0  0  0  0  0  0
   -5.3266    3.9478    1.9290 F   0  0  0  0  0  0  0  0  0  0  0  0
  1  8  1  0  0  0  0
  2  1  1  0  0  0  0
  3  2  1  0  0  0  0
  4  1  2  0  0  0  0
  4  5  1  0  0  0  0
  5  6  2  0  0  0  0
  6  7  1  0  0  0  0
  6 11  1  0  0  0  0
  7 12  1  0  0  0  0
  8 13  1  0  0  0  0
  8  7  2  0  0  0  0
  9 16  1  0  0  0  0
 10  5  1  0  0  0  0
 14 15  2  0  0  0  0
 15 16  1  0  0  0  0
 15 17  1  0  0  0  0
 17 20  1  0  0  0  0
 18 17  1  0  0  0  0
 19 17  1  0  0  0  0
M  RAD  3   2   2   3   3   4   2
M  END
