Coordinates from ORCA-job PhN2+~CF3COO-_B3LYPG-6-31G_dp-CH-Scan-d09-49-n800
 OpenBabel11261919373D

 20 19  0  0  0  0  0  0  0  0999 V2000
   -1.8556    0.2926   -0.1724 C   0  0  0  0  0  0  0  0  0  0  0  0
   -3.2222    0.0930   -0.3304 N   0  0  0  0  0  0  0  0  0  0  0  0
   -4.3276   -0.0084   -0.4529 N   0  0  0  0  0  0  0  0  0  0  0  0
   -1.4778    1.6384   -0.0239 C   0  0  0  0  0  0  0  0  0  0  0  0
   -0.0726    1.7433    0.1325 C   0  0  0  0  0  0  0  0  0  0  0  0
    0.7861    0.6470    0.1350 C   0  0  0  0  0  0  0  0  0  0  0  0
    0.3024   -0.6720   -0.0226 C   0  0  0  0  0  0  0  0  0  0  0  0
   -1.0507   -0.8770   -0.1821 C   0  0  0  0  0  0  0  0  0  0  0  0
   -2.7535    3.2513   -0.0284 H   0  0  0  0  0  0  0  0  0  0  0  0
    0.3668    2.7317    0.2593 H   0  0  0  0  0  0  0  0  0  0  0  0
    1.8563    0.7979    0.2619 H   0  0  0  0  0  0  0  0  0  0  0  0
    0.9867   -1.5139   -0.0177 H   0  0  0  0  0  0  0  0  0  0  0  0
   -1.4773   -1.8679   -0.3078 H   0  0  0  0  0  0  0  0  0  0  0  0
   -5.0686    2.6372   -0.3389 O   0  0  0  0  0  0  0  0  0  0  0  0
   -4.5973    3.7457   -0.1934 C   0  0  0  0  0  0  0  0  0  0  0  0
   -3.3363    4.0758   -0.0234 O   0  0  0  0  0  0  0  0  0  0  0  0
   -5.4892    5.0089   -0.1913 C   0  0  0  0  0  0  0  0  0  0  0  0
   -5.1363    5.8362   -1.1937 F   0  0  0  0  0  0  0  0  0  0  0  0
   -6.7761    4.6805   -0.3476 F   0  0  0  0  0  0  0  0  0  0  0  0
   -5.3587    5.6784    0.9695 F   0  0  0  0  0  0  0  0  0  0  0  0
  1  4  1  0  0  0  0
  2  1  1  0  0  0  0
  3  2  1  0  0  0  0
  4  5  2  0  0  0  0
  5  6  1  0  0  0  0
  5 10  1  0  0  0  0
  6 11  1  0  0  0  0
  7 12  1  0  0  0  0
  7  6  2  0  0  0  0
  8  1  2  0  0  0  0
  8  7  1  0  0  0  0
  9 16  1  0  0  0  0
 13  8  1  0  0  0  0
 14 15  2  0  0  0  0
 15 17  1  0  0  0  0
 15 16  1  0  0  0  0
 17 20  1  0  0  0  0
 18 17  1  0  0  0  0
 19 17  1  0  0  0  0
M  RAD  3   2   2   3   3   4   2
M  END
