Coordinates from ORCA-job PhN2+~CF3COO-_B3LYPG-6-31G_dp-CH-Scan-d09-49-n800
 OpenBabel11261919373D

 20 19  0  0  0  0  0  0  0  0999 V2000
   -1.4221    0.1521   -0.1387 C   0  0  0  0  0  0  0  0  0  0  0  0
   -2.8077    0.2306   -0.2753 N   0  0  0  0  0  0  0  0  0  0  0  0
   -3.9149    0.3559   -0.3790 N   0  0  0  0  0  0  0  0  0  0  0  0
   -0.8229    1.4123    0.0156 C   0  0  0  0  0  0  0  0  0  0  0  0
    0.5860    1.2440    0.1499 C   0  0  0  0  0  0  0  0  0  0  0  0
    1.2279    0.0100    0.1277 C   0  0  0  0  0  0  0  0  0  0  0  0
    0.5089   -1.2007   -0.0361 C   0  0  0  0  0  0  0  0  0  0  0  0
   -0.8596   -1.1534   -0.1757 C   0  0  0  0  0  0  0  0  0  0  0  0
   -3.1362    4.6063    0.0482 H   0  0  0  0  0  0  0  0  0  0  0  0
    1.2095    2.1299    0.2797 H   0  0  0  0  0  0  0  0  0  0  0  0
    2.3101   -0.0428    0.2391 H   0  0  0  0  0  0  0  0  0  0  0  0
    1.0311   -2.1520   -0.0512 H   0  0  0  0  0  0  0  0  0  0  0  0
   -1.4643   -2.0472   -0.3050 H   0  0  0  0  0  0  0  0  0  0  0  0
   -4.9767    3.1731   -0.2903 O   0  0  0  0  0  0  0  0  0  0  0  0
   -4.9864    4.3728   -0.1864 C   0  0  0  0  0  0  0  0  0  0  0  0
   -3.9299    5.1670    0.0047 O   0  0  0  0  0  0  0  0  0  0  0  0
   -6.2749    5.2208   -0.2584 C   0  0  0  0  0  0  0  0  0  0  0  0
   -6.1930    6.1096   -1.2637 F   0  0  0  0  0  0  0  0  0  0  0  0
   -7.3335    4.4352   -0.4641 F   0  0  0  0  0  0  0  0  0  0  0  0
   -6.4528    5.8953    0.8909 F   0  0  0  0  0  0  0  0  0  0  0  0
  1  4  1  0  0  0  0
  2  1  1  0  0  0  0
  3  2  1  0  0  0  0
  4  5  2  0  0  0  0
  5 10  1  0  0  0  0
  6  5  1  0  0  0  0
  6 11  1  0  0  0  0
  7  6  2  0  0  0  0
  8  1  2  0  0  0  0
  8  7  1  0  0  0  0
 12  7  1  0  0  0  0
 13  8  1  0  0  0  0
 14 15  2  0  0  0  0
 15 16  1  0  0  0  0
 16  9  1  0  0  0  0
 17 15  1  0  0  0  0
 17 20  1  0  0  0  0
 18 17  1  0  0  0  0
 19 17  1  0  0  0  0
M  RAD  3   2   2   3   3   4   2
M  END
