Coordinates from ORCA-job PhN2+~CF3COO-_B3LYPG-6-31G_dp-CH-Scan-d09-49-n800
 OpenBabel11261919373D

 20 19  0  0  0  0  0  0  0  0999 V2000
   -1.6492    0.2221   -0.1529 C   0  0  0  0  0  0  0  0  0  0  0  0
   -3.0313    0.1490   -0.2992 N   0  0  0  0  0  0  0  0  0  0  0  0
   -4.1436    0.1414   -0.4123 N   0  0  0  0  0  0  0  0  0  0  0  0
   -1.1705    1.5332    0.0072 C   0  0  0  0  0  0  0  0  0  0  0  0
    0.2438    1.5127    0.1512 C   0  0  0  0  0  0  0  0  0  0  0  0
    1.0071    0.3490    0.1322 C   0  0  0  0  0  0  0  0  0  0  0  0
    0.4144   -0.9258   -0.0373 C   0  0  0  0  0  0  0  0  0  0  0  0
   -0.9515   -1.0162   -0.1861 C   0  0  0  0  0  0  0  0  0  0  0  0
   -2.9320    3.8527    0.0167 H   0  0  0  0  0  0  0  0  0  0  0  0
    0.7709    2.4574    0.2859 H   0  0  0  0  0  0  0  0  0  0  0  0
    2.0879    0.4066    0.2508 H   0  0  0  0  0  0  0  0  0  0  0  0
    1.0282   -1.8206   -0.0495 H   0  0  0  0  0  0  0  0  0  0  0  0
   -1.4611   -1.9665   -0.3200 H   0  0  0  0  0  0  0  0  0  0  0  0
   -5.0613    2.8592   -0.3183 O   0  0  0  0  0  0  0  0  0  0  0  0
   -4.7972    4.0298   -0.1892 C   0  0  0  0  0  0  0  0  0  0  0  0
   -3.5976    4.5687   -0.0009 O   0  0  0  0  0  0  0  0  0  0  0  0
   -5.8732    5.1378   -0.2280 C   0  0  0  0  0  0  0  0  0  0  0  0
   -5.6290    5.9912   -1.2385 F   0  0  0  0  0  0  0  0  0  0  0  0
   -7.0845    4.6033   -0.4029 F   0  0  0  0  0  0  0  0  0  0  0  0
   -5.8718    5.8340    0.9227 F   0  0  0  0  0  0  0  0  0  0  0  0
  1  4  1  0  0  0  0
  2  1  1  0  0  0  0
  3  2  1  0  0  0  0
  4  5  2  0  0  0  0
  5 10  1  0  0  0  0
  6  5  1  0  0  0  0
  6 11  1  0  0  0  0
  7  6  2  0  0  0  0
  8  1  2  0  0  0  0
  8  7  1  0  0  0  0
 12  7  1  0  0  0  0
 13  8  1  0  0  0  0
 14 15  2  0  0  0  0
 15 16  1  0  0  0  0
 16  9  1  0  0  0  0
 17 15  1  0  0  0  0
 17 20  1  0  0  0  0
 18 17  1  0  0  0  0
 19 17  1  0  0  0  0
M  RAD  3   2   2   3   3   4   2
M  END
