Coordinates from ORCA-job PhN2+~CF3COO-_B3LYPG-6-31G_dp-CH-Scan-d09-49-n800
 OpenBabel11261919373D

 20 19  0  0  0  0  0  0  0  0999 V2000
   -1.2912    0.1343   -0.1789 C   0  0  0  0  0  0  0  0  0  0  0  0
   -2.6637    0.3084   -0.3596 N   0  0  0  0  0  0  0  0  0  0  0  0
   -3.7554    0.5144   -0.4970 N   0  0  0  0  0  0  0  0  0  0  0  0
   -0.6147    1.3541   -0.0255 C   0  0  0  0  0  0  0  0  0  0  0  0
    0.7753    1.0930    0.1568 C   0  0  0  0  0  0  0  0  0  0  0  0
    1.3317   -0.1816    0.1760 C   0  0  0  0  0  0  0  0  0  0  0  0
    0.5374   -1.3441    0.0079 C   0  0  0  0  0  0  0  0  0  0  0  0
   -0.8196   -1.2073   -0.1775 C   0  0  0  0  0  0  0  0  0  0  0  0
   -3.2749    5.0262   -0.0533 H   0  0  0  0  0  0  0  0  0  0  0  0
    1.4535    1.9370    0.2924 H   0  0  0  0  0  0  0  0  0  0  0  0
    2.4037   -0.3060    0.3241 H   0  0  0  0  0  0  0  0  0  0  0  0
    0.9941   -2.3285    0.0253 H   0  0  0  0  0  0  0  0  0  0  0  0
   -1.4794   -2.0602   -0.3130 H   0  0  0  0  0  0  0  0  0  0  0  0
   -4.9263    3.3712   -0.3019 O   0  0  0  0  0  0  0  0  0  0  0  0
   -5.0882    4.5596   -0.2008 C   0  0  0  0  0  0  0  0  0  0  0  0
   -4.1329    5.4845   -0.0608 O   0  0  0  0  0  0  0  0  0  0  0  0
   -6.4764    5.2354   -0.2171 C   0  0  0  0  0  0  0  0  0  0  0  0
   -6.5587    6.1057   -1.2384 F   0  0  0  0  0  0  0  0  0  0  0  0
   -7.4341    4.3169   -0.3566 F   0  0  0  0  0  0  0  0  0  0  0  0
   -6.6817    5.9057    0.9297 F   0  0  0  0  0  0  0  0  0  0  0  0
  1  8  2  0  0  0  0
  1  4  1  0  0  0  0
  2  1  1  0  0  0  0
  3  2  1  0  0  0  0
  4  5  2  0  0  0  0
  5  6  1  0  0  0  0
  5 10  1  0  0  0  0
  6 11  1  0  0  0  0
  7 12  1  0  0  0  0
  7  6  2  0  0  0  0
  8  7  1  0  0  0  0
 13  8  1  0  0  0  0
 14 15  2  0  0  0  0
 15 16  1  0  0  0  0
 16  9  1  0  0  0  0
 17 15  1  0  0  0  0
 17 20  1  0  0  0  0
 18 17  1  0  0  0  0
 19 17  1  0  0  0  0
M  RAD  3   2   2   3   3   4   2
M  END
