Coordinates from ORCA-job PhN2+~CF3COO-_B3LYPG-6-31G_dp-CH-Scan-d09-49-n800
 OpenBabel11261919373D

 20 19  0  0  0  0  0  0  0  0999 V2000
   -1.7728    0.2640   -0.1621 C   0  0  0  0  0  0  0  0  0  0  0  0
   -3.1471    0.1148   -0.3133 N   0  0  0  0  0  0  0  0  0  0  0  0
   -4.2560    0.0461   -0.4309 N   0  0  0  0  0  0  0  0  0  0  0  0
   -1.3547    1.5970   -0.0085 C   0  0  0  0  0  0  0  0  0  0  0  0
    0.0558    1.6526    0.1405 C   0  0  0  0  0  0  0  0  0  0  0  0
    0.8773    0.5286    0.1319 C   0  0  0  0  0  0  0  0  0  0  0  0
    0.3499   -0.7741   -0.0307 C   0  0  0  0  0  0  0  0  0  0  0  0
   -1.0095   -0.9342   -0.1835 C   0  0  0  0  0  0  0  0  0  0  0  0
   -2.8310    3.4853   -0.0078 H   0  0  0  0  0  0  0  0  0  0  0  0
    0.5310    2.6243    0.2706 H   0  0  0  0  0  0  0  0  0  0  0  0
    1.9530    0.6426    0.2535 H   0  0  0  0  0  0  0  0  0  0  0  0
    1.0070   -1.6374   -0.0345 H   0  0  0  0  0  0  0  0  0  0  0  0
   -1.4693   -1.9099   -0.3125 H   0  0  0  0  0  0  0  0  0  0  0  0
   -5.0746    2.7205   -0.3327 O   0  0  0  0  0  0  0  0  0  0  0  0
   -4.6818    3.8563   -0.1923 C   0  0  0  0  0  0  0  0  0  0  0  0
   -3.4386    4.2663   -0.0114 O   0  0  0  0  0  0  0  0  0  0  0  0
   -5.6437    5.0659   -0.2078 C   0  0  0  0  0  0  0  0  0  0  0  0
   -5.3243    5.9069   -1.2086 F   0  0  0  0  0  0  0  0  0  0  0  0
   -6.9052    4.6597   -0.3801 F   0  0  0  0  0  0  0  0  0  0  0  0
   -5.5671    5.7439    0.9520 F   0  0  0  0  0  0  0  0  0  0  0  0
  1  4  1  0  0  0  0
  2  1  1  0  0  0  0
  3  2  1  0  0  0  0
  4  5  2  0  0  0  0
  5 10  1  0  0  0  0
  6  5  1  0  0  0  0
  6 11  1  0  0  0  0
  7  6  2  0  0  0  0
  8  1  2  0  0  0  0
  8  7  1  0  0  0  0
 12  7  1  0  0  0  0
 13  8  1  0  0  0  0
 14 15  2  0  0  0  0
 15 16  1  0  0  0  0
 16  9  1  0  0  0  0
 17 15  1  0  0  0  0
 17 20  1  0  0  0  0
 18 17  1  0  0  0  0
 19 17  1  0  0  0  0
M  RAD  3   2   2   3   3   4   2
M  END
