Coordinates from ORCA-job PhN2+~CF3COO-_B3LYPG-6-31G_dp-CH-Scan-d09-49-n800
 OpenBabel11261919373D

 20 19  0  0  0  0  0  0  0  0999 V2000
   -1.3157    0.1364   -0.1600 C   0  0  0  0  0  0  0  0  0  0  0  0
   -2.6926    0.2940   -0.3206 N   0  0  0  0  0  0  0  0  0  0  0  0
   -3.7883    0.4862   -0.4452 N   0  0  0  0  0  0  0  0  0  0  0  0
   -0.6524    1.3631   -0.0027 C   0  0  0  0  0  0  0  0  0  0  0  0
    0.7430    1.1179    0.1582 C   0  0  0  0  0  0  0  0  0  0  0  0
    1.3158   -0.1497    0.1558 C   0  0  0  0  0  0  0  0  0  0  0  0
    0.5341   -1.3203   -0.0139 C   0  0  0  0  0  0  0  0  0  0  0  0
   -0.8270   -1.1989   -0.1793 C   0  0  0  0  0  0  0  0  0  0  0  0
   -3.2501    4.9632   -0.0018 H   0  0  0  0  0  0  0  0  0  0  0  0
    1.4123    1.9690    0.2938 H   0  0  0  0  0  0  0  0  0  0  0  0
    2.3913   -0.2618    0.2879 H   0  0  0  0  0  0  0  0  0  0  0  0
    1.0033   -2.2990   -0.0135 H   0  0  0  0  0  0  0  0  0  0  0  0
   -1.4778   -2.0587   -0.3148 H   0  0  0  0  0  0  0  0  0  0  0  0
   -4.9266    3.3387   -0.2883 O   0  0  0  0  0  0  0  0  0  0  0  0
   -5.0681    4.5300   -0.1908 C   0  0  0  0  0  0  0  0  0  0  0  0
   -4.0993    5.4369   -0.0288 O   0  0  0  0  0  0  0  0  0  0  0  0
   -6.4427    5.2316   -0.2400 C   0  0  0  0  0  0  0  0  0  0  0  0
   -6.4875    6.0953   -1.2692 F   0  0  0  0  0  0  0  0  0  0  0  0
   -7.4146    4.3303   -0.3923 F   0  0  0  0  0  0  0  0  0  0  0  0
   -6.6587    5.9146    0.8973 F   0  0  0  0  0  0  0  0  0  0  0  0
  1  4  1  0  0  0  0
  2  1  1  0  0  0  0
  3  2  1  0  0  0  0
  4  5  2  0  0  0  0
  5 10  1  0  0  0  0
  6  5  1  0  0  0  0
  6 11  1  0  0  0  0
  7 12  1  0  0  0  0
  7  6  2  0  0  0  0
  8  1  2  0  0  0  0
  8  7  1  0  0  0  0
 13  8  1  0  0  0  0
 14 15  2  0  0  0  0
 15 16  1  0  0  0  0
 16  9  1  0  0  0  0
 17 15  1  0  0  0  0
 17 20  1  0  0  0  0
 18 17  1  0  0  0  0
 19 17  1  0  0  0  0
M  RAD  3   2   2   3   3   4   2
M  END
