Coordinates from ORCA-job PhN2+~CF3COO-_B3LYPG-6-31G_dp-CH-Scan-d09-49-n800
 OpenBabel11261919373D

 20 19  0  0  0  0  0  0  0  0999 V2000
   -1.7667    0.2618   -0.1615 C   0  0  0  0  0  0  0  0  0  0  0  0
   -3.1414    0.1164   -0.3123 N   0  0  0  0  0  0  0  0  0  0  0  0
   -4.2506    0.0504   -0.4296 N   0  0  0  0  0  0  0  0  0  0  0  0
   -1.3456    1.5938   -0.0075 C   0  0  0  0  0  0  0  0  0  0  0  0
    0.0652    1.6458    0.1411 C   0  0  0  0  0  0  0  0  0  0  0  0
    0.8840    0.5199    0.1318 C   0  0  0  0  0  0  0  0  0  0  0  0
    0.3533   -0.7816   -0.0311 C   0  0  0  0  0  0  0  0  0  0  0  0
   -1.0065   -0.9383   -0.1837 C   0  0  0  0  0  0  0  0  0  0  0  0
   -2.8363    3.5026   -0.0065 H   0  0  0  0  0  0  0  0  0  0  0  0
    0.5430    2.6163    0.2715 H   0  0  0  0  0  0  0  0  0  0  0  0
    1.9600    0.6311    0.2531 H   0  0  0  0  0  0  0  0  0  0  0  0
    1.0084   -1.6465   -0.0355 H   0  0  0  0  0  0  0  0  0  0  0  0
   -1.4687   -1.9129   -0.3129 H   0  0  0  0  0  0  0  0  0  0  0  0
   -5.0748    2.7269   -0.3321 O   0  0  0  0  0  0  0  0  0  0  0  0
   -4.6879    3.8646   -0.1922 C   0  0  0  0  0  0  0  0  0  0  0  0
   -3.4464    4.2806   -0.0108 O   0  0  0  0  0  0  0  0  0  0  0  0
   -5.6551    5.0699   -0.2089 C   0  0  0  0  0  0  0  0  0  0  0  0
   -5.3387    5.9117   -1.2100 F   0  0  0  0  0  0  0  0  0  0  0  0
   -6.9145    4.6579   -0.3818 F   0  0  0  0  0  0  0  0  0  0  0  0
   -5.5821    5.7487    0.9506 F   0  0  0  0  0  0  0  0  0  0  0  0
  1  4  1  0  0  0  0
  2  1  1  0  0  0  0
  3  2  1  0  0  0  0
  4  5  2  0  0  0  0
  5 10  1  0  0  0  0
  6  5  1  0  0  0  0
  6 11  1  0  0  0  0
  7  6  2  0  0  0  0
  8  1  2  0  0  0  0
  8  7  1  0  0  0  0
 12  7  1  0  0  0  0
 13  8  1  0  0  0  0
 14 15  2  0  0  0  0
 15 16  1  0  0  0  0
 16  9  1  0  0  0  0
 17 15  1  0  0  0  0
 17 20  1  0  0  0  0
 18 17  1  0  0  0  0
 19 17  1  0  0  0  0
M  RAD  3   2   2   3   3   4   2
M  END
