Coordinates from ORCA-job PhN2+~CF3COO-_B3LYPG-6-31G_dp-CH-Scan-d09-49-n800
 OpenBabel11261919373D

 20 19  0  0  0  0  0  0  0  0999 V2000
   -1.5471    0.1887   -0.1514 C   0  0  0  0  0  0  0  0  0  0  0  0
   -2.9324    0.1818   -0.2989 N   0  0  0  0  0  0  0  0  0  0  0  0
   -4.0442    0.2312   -0.4124 N   0  0  0  0  0  0  0  0  0  0  0  0
   -1.0159    1.4801   -0.0009 C   0  0  0  0  0  0  0  0  0  0  0  0
    0.3976    1.3942    0.1444 C   0  0  0  0  0  0  0  0  0  0  0  0
    1.1080    0.1979    0.1349 C   0  0  0  0  0  0  0  0  0  0  0  0
    0.4592   -1.0515   -0.0257 C   0  0  0  0  0  0  0  0  0  0  0  0
   -0.9089   -1.0818   -0.1752 C   0  0  0  0  0  0  0  0  0  0  0  0
   -3.0119    4.1868    0.0041 H   0  0  0  0  0  0  0  0  0  0  0  0
    0.9683    2.3149    0.2726 H   0  0  0  0  0  0  0  0  0  0  0  0
    2.1905    0.2072    0.2543 H   0  0  0  0  0  0  0  0  0  0  0  0
    1.0332   -1.9725   -0.0306 H   0  0  0  0  0  0  0  0  0  0  0  0
   -1.4611   -2.0091   -0.3025 H   0  0  0  0  0  0  0  0  0  0  0  0
   -5.0257    2.9913   -0.3113 O   0  0  0  0  0  0  0  0  0  0  0  0
   -4.8819    4.1825   -0.1956 C   0  0  0  0  0  0  0  0  0  0  0  0
   -3.7357    4.8384   -0.0187 O   0  0  0  0  0  0  0  0  0  0  0  0
   -6.0594    5.1812   -0.2319 C   0  0  0  0  0  0  0  0  0  0  0  0
   -5.8850    6.0758   -1.2204 F   0  0  0  0  0  0  0  0  0  0  0  0
   -7.2089    4.5343   -0.4364 F   0  0  0  0  0  0  0  0  0  0  0  0
   -6.1401    5.8478    0.9332 F   0  0  0  0  0  0  0  0  0  0  0  0
  1  4  1  0  0  0  0
  2  1  1  0  0  0  0
  3  2  1  0  0  0  0
  4  5  2  0  0  0  0
  5 10  1  0  0  0  0
  6  5  1  0  0  0  0
  6 11  1  0  0  0  0
  7  6  2  0  0  0  0
  8  1  2  0  0  0  0
  8  7  1  0  0  0  0
 12  7  1  0  0  0  0
 13  8  1  0  0  0  0
 14 15  2  0  0  0  0
 15 16  1  0  0  0  0
 16  9  1  0  0  0  0
 17 15  1  0  0  0  0
 17 20  1  0  0  0  0
 18 17  1  0  0  0  0
 19 17  1  0  0  0  0
M  RAD  3   2   2   3   3   4   2
M  END
