Coordinates from ORCA-job PhN2+~CF3COO-_B3LYPG-6-31G_dp-CH-Scan-d09-49-n800
 OpenBabel11261919373D

 20 19  0  0  0  0  0  0  0  0999 V2000
   -2.0497    0.8149   -0.4078 C   0  0  0  0  0  0  0  0  0  0  0  0
   -3.4051    0.7964   -0.8545 N   0  0  0  0  0  0  0  0  0  0  0  0
   -4.2071    0.2292   -1.4081 N   0  0  0  0  0  0  0  0  0  0  0  0
   -1.3178    1.9970   -0.4631 C   0  0  0  0  0  0  0  0  0  0  0  0
    0.0186    1.9389   -0.0755 C   0  0  0  0  0  0  0  0  0  0  0  0
    0.5756    0.7381    0.3752 C   0  0  0  0  0  0  0  0  0  0  0  0
   -0.1920   -0.4302    0.4249 C   0  0  0  0  0  0  0  0  0  0  0  0
   -1.5235   -0.4092    0.0211 C   0  0  0  0  0  0  0  0  0  0  0  0
   -1.8341    2.9382   -0.8475 H   0  0  0  0  0  0  0  0  0  0  0  0
    0.6235    2.8387   -0.1181 H   0  0  0  0  0  0  0  0  0  0  0  0
    1.6134    0.7107    0.6920 H   0  0  0  0  0  0  0  0  0  0  0  0
    0.2436   -1.3594    0.7769 H   0  0  0  0  0  0  0  0  0  0  0  0
   -2.1419   -1.2996    0.0455 H   0  0  0  0  0  0  0  0  0  0  0  0
   -4.2118    2.3683    0.2615 O   0  0  0  0  0  0  0  0  0  0  0  0
   -4.2401    3.4607   -0.3986 C   0  0  0  0  0  0  0  0  0  0  0  0
   -3.5740    3.7968   -1.3816 O   0  0  0  0  0  0  0  0  0  0  0  0
   -5.2769    4.4681    0.1816 C   0  0  0  0  0  0  0  0  0  0  0  0
   -5.2922    5.6194   -0.5048 F   0  0  0  0  0  0  0  0  0  0  0  0
   -6.5200    3.9449    0.1440 F   0  0  0  0  0  0  0  0  0  0  0  0
   -4.9900    4.7569    1.4689 F   0  0  0  0  0  0  0  0  0  0  0  0
  1  8  1  0  0  0  0
  2  1  1  0  0  0  0
  3  2  2  0  0  0  0
  4  1  2  0  0  0  0
  4  5  1  0  0  0  0
  5  6  2  0  0  0  0
  6  7  1  0  0  0  0
  6 11  1  0  0  0  0
  7 12  1  0  0  0  0
  8 13  1  0  0  0  0
  8  7  2  0  0  0  0
  9  4  1  0  0  0  0
 10  5  1  0  0  0  0
 15 17  1  0  0  0  0
 15 14  1  0  0  0  0
 16 15  2  0  0  0  0
 17 20  1  0  0  0  0
 18 17  1  0  0  0  0
 19 17  1  0  0  0  0
M  RAD  2   3   2  14   2
M  END
