Coordinates from ORCA-job PhN2+~CF3COO-_B3LYPG-6-31G_dp-CH-Scan-d09-49-n800
 OpenBabel11261919373D

 20 19  0  0  0  0  0  0  0  0999 V2000
   -1.4806    0.1663   -0.1453 C   0  0  0  0  0  0  0  0  0  0  0  0
   -2.8668    0.2029   -0.2880 N   0  0  0  0  0  0  0  0  0  0  0  0
   -3.9767    0.2919   -0.3977 N   0  0  0  0  0  0  0  0  0  0  0  0
   -0.9156    1.4430    0.0043 C   0  0  0  0  0  0  0  0  0  0  0  0
    0.4963    1.3158    0.1449 C   0  0  0  0  0  0  0  0  0  0  0  0
    1.1726    0.1000    0.1320 C   0  0  0  0  0  0  0  0  0  0  0  0
    0.4883   -1.1309   -0.0277 C   0  0  0  0  0  0  0  0  0  0  0  0
   -0.8805   -1.1226   -0.1726 C   0  0  0  0  0  0  0  0  0  0  0  0
   -3.0756    4.4019    0.0171 H   0  0  0  0  0  0  0  0  0  0  0  0
    1.0940    2.2196    0.2720 H   0  0  0  0  0  0  0  0  0  0  0  0
    2.2553    0.0783    0.2477 H   0  0  0  0  0  0  0  0  0  0  0  0
    1.0366   -2.0675   -0.0353 H   0  0  0  0  0  0  0  0  0  0  0  0
   -1.4594   -2.0337   -0.2990 H   0  0  0  0  0  0  0  0  0  0  0  0
   -5.0063    3.0844   -0.3039 O   0  0  0  0  0  0  0  0  0  0  0  0
   -4.9398    4.2823   -0.1941 C   0  0  0  0  0  0  0  0  0  0  0  0
   -3.8356    5.0090   -0.0129 O   0  0  0  0  0  0  0  0  0  0  0  0
   -6.1752    5.2075   -0.2428 C   0  0  0  0  0  0  0  0  0  0  0  0
   -6.0443    6.1118   -1.2290 F   0  0  0  0  0  0  0  0  0  0  0  0
   -7.2807    4.4923   -0.4595 F   0  0  0  0  0  0  0  0  0  0  0  0
   -6.3075    5.8665    0.9218 F   0  0  0  0  0  0  0  0  0  0  0  0
  1  4  1  0  0  0  0
  2  1  1  0  0  0  0
  3  2  1  0  0  0  0
  4  5  2  0  0  0  0
  5 10  1  0  0  0  0
  6  5  1  0  0  0  0
  6 11  1  0  0  0  0
  7  6  2  0  0  0  0
  8  1  2  0  0  0  0
  8  7  1  0  0  0  0
 12  7  1  0  0  0  0
 13  8  1  0  0  0  0
 14 15  2  0  0  0  0
 15 16  1  0  0  0  0
 16  9  1  0  0  0  0
 17 15  1  0  0  0  0
 17 20  1  0  0  0  0
 18 17  1  0  0  0  0
 19 17  1  0  0  0  0
M  RAD  3   2   2   3   3   4   2
M  END
