Coordinates from ORCA-job PhN2+~CF3COO-_B3LYPG-6-31G_dp-CH-Scan-d09-49-n800
 OpenBabel11261919373D

 20 19  0  0  0  0  0  0  0  0999 V2000
   -1.9223    0.3187   -0.1881 C   0  0  0  0  0  0  0  0  0  0  0  0
   -3.2820    0.0837   -0.3586 N   0  0  0  0  0  0  0  0  0  0  0  0
   -4.3845   -0.0303   -0.4898 N   0  0  0  0  0  0  0  0  0  0  0  0
   -1.5725    1.6721   -0.0441 C   0  0  0  0  0  0  0  0  0  0  0  0
   -0.1752    1.8169    0.1260 C   0  0  0  0  0  0  0  0  0  0  0  0
    0.7105    0.7418    0.1445 C   0  0  0  0  0  0  0  0  0  0  0  0
    0.2601   -0.5880   -0.0095 C   0  0  0  0  0  0  0  0  0  0  0  0
   -1.0867   -0.8271   -0.1816 C   0  0  0  0  0  0  0  0  0  0  0  0
   -2.6725    3.0473   -0.0591 H   0  0  0  0  0  0  0  0  0  0  0  0
    0.2337    2.8181    0.2505 H   0  0  0  0  0  0  0  0  0  0  0  0
    1.7749    0.9202    0.2814 H   0  0  0  0  0  0  0  0  0  0  0  0
    0.9638   -1.4135    0.0078 H   0  0  0  0  0  0  0  0  0  0  0  0
   -1.4872   -1.8288   -0.3051 H   0  0  0  0  0  0  0  0  0  0  0  0
   -5.0614    2.5711   -0.3234 O   0  0  0  0  0  0  0  0  0  0  0  0
   -4.5250    3.6565   -0.1903 C   0  0  0  0  0  0  0  0  0  0  0  0
   -3.2554    3.9242   -0.0503 O   0  0  0  0  0  0  0  0  0  0  0  0
   -5.3654    4.9560   -0.1735 C   0  0  0  0  0  0  0  0  0  0  0  0
   -5.0052    5.7651   -1.1897 F   0  0  0  0  0  0  0  0  0  0  0  0
   -6.6709    4.6867   -0.2947 F   0  0  0  0  0  0  0  0  0  0  0  0
   -5.1781    5.6282    0.9793 F   0  0  0  0  0  0  0  0  0  0  0  0
  1  8  2  0  0  0  0
  1  4  1  0  0  0  0
  2  1  1  0  0  0  0
  3  2  1  0  0  0  0
  4  5  2  0  0  0  0
  5  6  1  0  0  0  0
  5 10  1  0  0  0  0
  6 11  1  0  0  0  0
  7 12  1  0  0  0  0
  7  6  2  0  0  0  0
  8  7  1  0  0  0  0
  9 16  1  0  0  0  0
 13  8  1  0  0  0  0
 14 15  2  0  0  0  0
 15 17  1  0  0  0  0
 15 16  1  0  0  0  0
 17 20  1  0  0  0  0
 18 17  1  0  0  0  0
 19 17  1  0  0  0  0
M  RAD  3   2   2   3   3   4   2
M  END
