Coordinates from ORCA-job PhN2+~CF3COO-_B3LYPG-6-31G_dp-CH-Scan-d09-49-n800
 OpenBabel11261919373D

 20 19  0  0  0  0  0  0  0  0999 V2000
   -1.3733    0.1437   -0.1355 C   0  0  0  0  0  0  0  0  0  0  0  0
   -2.7566    0.2606   -0.2705 N   0  0  0  0  0  0  0  0  0  0  0  0
   -3.8600    0.4186   -0.3718 N   0  0  0  0  0  0  0  0  0  0  0  0
   -0.7437    1.3872    0.0313 C   0  0  0  0  0  0  0  0  0  0  0  0
    0.6607    1.1817    0.1648 C   0  0  0  0  0  0  0  0  0  0  0  0
    1.2713   -0.0677    0.1309 C   0  0  0  0  0  0  0  0  0  0  0  0
    0.5222   -1.2584   -0.0453 C   0  0  0  0  0  0  0  0  0  0  0  0
   -0.8446   -1.1755   -0.1853 C   0  0  0  0  0  0  0  0  0  0  0  0
   -3.1884    4.7890    0.0503 H   0  0  0  0  0  0  0  0  0  0  0  0
    1.3064    2.0502    0.3037 H   0  0  0  0  0  0  0  0  0  0  0  0
    2.3518   -0.1491    0.2425 H   0  0  0  0  0  0  0  0  0  0  0  0
    1.0205   -2.2224   -0.0696 H   0  0  0  0  0  0  0  0  0  0  0  0
   -1.4716   -2.0523   -0.3238 H   0  0  0  0  0  0  0  0  0  0  0  0
   -4.9422    3.2533   -0.2756 O   0  0  0  0  0  0  0  0  0  0  0  0
   -5.0218    4.4509   -0.1821 C   0  0  0  0  0  0  0  0  0  0  0  0
   -4.0113    5.3055    0.0025 O   0  0  0  0  0  0  0  0  0  0  0  0
   -6.3562    5.2236   -0.2649 C   0  0  0  0  0  0  0  0  0  0  0  0
   -6.3325    6.0831   -1.2986 F   0  0  0  0  0  0  0  0  0  0  0  0
   -7.3706    4.3739   -0.4354 F   0  0  0  0  0  0  0  0  0  0  0  0
   -6.5615    5.9231    0.8643 F   0  0  0  0  0  0  0  0  0  0  0  0
  1  4  1  0  0  0  0
  2  1  1  0  0  0  0
  3  2  1  0  0  0  0
  4  5  2  0  0  0  0
  5 10  1  0  0  0  0
  6  5  1  0  0  0  0
  6 11  1  0  0  0  0
  7  6  2  0  0  0  0
  8  1  2  0  0  0  0
  8  7  1  0  0  0  0
 12  7  1  0  0  0  0
 13  8  1  0  0  0  0
 14 15  2  0  0  0  0
 15 16  1  0  0  0  0
 16  9  1  0  0  0  0
 17 15  1  0  0  0  0
 17 20  1  0  0  0  0
 18 17  1  0  0  0  0
 19 17  1  0  0  0  0
M  RAD  3   2   2   3   3   4   2
M  END
