Coordinates from ORCA-job PhN2+~CF3COO-_B3LYPG-6-31G_dp-CH-Scan-d09-49-n800
 OpenBabel11261919373D

 20 19  0  0  0  0  0  0  0  0999 V2000
   -2.0692    0.6756   -0.1022 C   0  0  0  0  0  0  0  0  0  0  0  0
   -3.4816    0.5796   -0.1702 N   0  0  0  0  0  0  0  0  0  0  0  0
   -4.4034   -0.0647   -0.2095 N   0  0  0  0  0  0  0  0  0  0  0  0
   -1.4245    1.9076   -0.1688 C   0  0  0  0  0  0  0  0  0  0  0  0
   -0.0298    1.8952   -0.1049 C   0  0  0  0  0  0  0  0  0  0  0  0
    0.6732    0.6973    0.0241 C   0  0  0  0  0  0  0  0  0  0  0  0
   -0.0081   -0.5256    0.0884 C   0  0  0  0  0  0  0  0  0  0  0  0
   -1.3937   -0.5520    0.0235 C   0  0  0  0  0  0  0  0  0  0  0  0
   -1.9188    2.7258   -0.2575 H   0  0  0  0  0  0  0  0  0  0  0  0
    0.5006    2.8404   -0.1559 H   0  0  0  0  0  0  0  0  0  0  0  0
    1.7579    0.7093    0.0761 H   0  0  0  0  0  0  0  0  0  0  0  0
    0.5402   -1.4564    0.1895 H   0  0  0  0  0  0  0  0  0  0  0  0
   -1.9491   -1.4822    0.0702 H   0  0  0  0  0  0  0  0  0  0  0  0
   -4.3628    2.5380   -0.1018 O   0  0  0  0  0  0  0  0  0  0  0  0
   -4.1160    3.7847   -0.2305 C   0  0  0  0  0  0  0  0  0  0  0  0
   -3.0501    4.3812   -0.3877 O   0  0  0  0  0  0  0  0  0  0  0  0
   -5.4301    4.6261   -0.1754 C   0  0  0  0  0  0  0  0  0  0  0  0
   -5.1876    5.9421   -0.2705 F   0  0  0  0  0  0  0  0  0  0  0  0
   -6.2572    4.2851   -1.1876 F   0  0  0  0  0  0  0  0  0  0  0  0
   -6.0914    4.4118    0.9826 F   0  0  0  0  0  0  0  0  0  0  0  0
  1  8  2  0  0  0  0
  2  1  1  0  0  0  0
  3  2  2  0  0  0  0
  4  5  2  0  0  0  0
  4  1  1  0  0  0  0
  5  6  1  0  0  0  0
  6 11  1  0  0  0  0
  6  7  2  0  0  0  0
  7 12  1  0  0  0  0
  8 13  1  0  0  0  0
  8  7  1  0  0  0  0
  9  4  1  0  0  0  0
 10  5  1  0  0  0  0
 15 17  1  0  0  0  0
 15 14  1  0  0  0  0
 16 15  2  0  0  0  0
 17 20  1  0  0  0  0
 18 17  1  0  0  0  0
 19 17  1  0  0  0  0
M  RAD  2   3   2  14   2
M  END
