Coordinates from ORCA-job PhN2+~CF3COO-_B3LYPG-6-31G_dp-CH-Scan-d09-49-n800
 OpenBabel11261919373D

 20 19  0  0  0  0  0  0  0  0999 V2000
   -1.9399    0.3268   -0.1926 C   0  0  0  0  0  0  0  0  0  0  0  0
   -3.2983    0.0857   -0.3667 N   0  0  0  0  0  0  0  0  0  0  0  0
   -4.4011   -0.0221   -0.4997 N   0  0  0  0  0  0  0  0  0  0  0  0
   -1.5948    1.6809   -0.0493 C   0  0  0  0  0  0  0  0  0  0  0  0
   -0.2006    1.8367    0.1249 C   0  0  0  0  0  0  0  0  0  0  0  0
    0.6911    0.7663    0.1476 C   0  0  0  0  0  0  0  0  0  0  0  0
    0.2483   -0.5655   -0.0060 C   0  0  0  0  0  0  0  0  0  0  0  0
   -1.0970   -0.8126   -0.1819 C   0  0  0  0  0  0  0  0  0  0  0  0
   -2.6425    2.9825   -0.0673 H   0  0  0  0  0  0  0  0  0  0  0  0
    0.1998    2.8412    0.2491 H   0  0  0  0  0  0  0  0  0  0  0  0
    1.7540    0.9510    0.2874 H   0  0  0  0  0  0  0  0  0  0  0  0
    0.9563   -1.3872    0.0146 H   0  0  0  0  0  0  0  0  0  0  0  0
   -1.4913   -1.8167   -0.3051 H   0  0  0  0  0  0  0  0  0  0  0  0
   -5.0608    2.5530   -0.3157 O   0  0  0  0  0  0  0  0  0  0  0  0
   -4.5054    3.6321   -0.1888 C   0  0  0  0  0  0  0  0  0  0  0  0
   -3.2354    3.8830   -0.0596 O   0  0  0  0  0  0  0  0  0  0  0  0
   -5.3340    4.9399   -0.1693 C   0  0  0  0  0  0  0  0  0  0  0  0
   -4.9738    5.7440   -1.1901 F   0  0  0  0  0  0  0  0  0  0  0  0
   -6.6440    4.6857   -0.2800 F   0  0  0  0  0  0  0  0  0  0  0  0
   -5.1319    5.6141    0.9805 F   0  0  0  0  0  0  0  0  0  0  0  0
  1  8  2  0  0  0  0
  1  4  1  0  0  0  0
  2  1  1  0  0  0  0
  3  2  1  0  0  0  0
  4  5  2  0  0  0  0
  5  6  1  0  0  0  0
  5 10  1  0  0  0  0
  6 11  1  0  0  0  0
  7 12  1  0  0  0  0
  7  6  2  0  0  0  0
  8  7  1  0  0  0  0
  9 16  1  0  0  0  0
 13  8  1  0  0  0  0
 14 15  2  0  0  0  0
 15 17  1  0  0  0  0
 15 16  1  0  0  0  0
 17 20  1  0  0  0  0
 18 17  1  0  0  0  0
 19 17  1  0  0  0  0
M  RAD  3   2   2   3   3   4   2
M  END
