Coordinates from ORCA-job PhN2+~CF3COO-_B3LYPG-6-31G_dp-CH-Scan-d09-49-n800
 OpenBabel11261919373D

 20 19  0  0  0  0  0  0  0  0999 V2000
   -1.6020    0.2077   -0.1550 C   0  0  0  0  0  0  0  0  0  0  0  0
   -2.9857    0.1656   -0.3049 N   0  0  0  0  0  0  0  0  0  0  0  0
   -4.0979    0.1836   -0.4203 N   0  0  0  0  0  0  0  0  0  0  0  0
   -1.0986    1.5099    0.0002 C   0  0  0  0  0  0  0  0  0  0  0  0
    0.3154    1.4585    0.1481 C   0  0  0  0  0  0  0  0  0  0  0  0
    1.0537    0.2789    0.1366 C   0  0  0  0  0  0  0  0  0  0  0  0
    0.4346   -0.9843   -0.0287 C   0  0  0  0  0  0  0  0  0  0  0  0
   -0.9323   -1.0463   -0.1809 C   0  0  0  0  0  0  0  0  0  0  0  0
   -2.9659    4.0066    0.0020 H   0  0  0  0  0  0  0  0  0  0  0  0
    0.8631    2.3921    0.2799 H   0  0  0  0  0  0  0  0  0  0  0  0
    2.1353    0.3137    0.2581 H   0  0  0  0  0  0  0  0  0  0  0  0
    1.0296   -1.8918   -0.0351 H   0  0  0  0  0  0  0  0  0  0  0  0
   -1.4620   -1.9861   -0.3119 H   0  0  0  0  0  0  0  0  0  0  0  0
   -5.0440    2.9180   -0.3157 O   0  0  0  0  0  0  0  0  0  0  0  0
   -4.8354    4.0997   -0.1934 C   0  0  0  0  0  0  0  0  0  0  0  0
   -3.6584    4.6937   -0.0153 O   0  0  0  0  0  0  0  0  0  0  0  0
   -5.9604    5.1577   -0.2262 C   0  0  0  0  0  0  0  0  0  0  0  0
   -5.7538    6.0296   -1.2289 F   0  0  0  0  0  0  0  0  0  0  0  0
   -7.1450    4.5691   -0.4074 F   0  0  0  0  0  0  0  0  0  0  0  0
   -5.9917    5.8430    0.9305 F   0  0  0  0  0  0  0  0  0  0  0  0
  1  4  1  0  0  0  0
  2  1  1  0  0  0  0
  3  2  1  0  0  0  0
  4  5  2  0  0  0  0
  5 10  1  0  0  0  0
  6  5  1  0  0  0  0
  6 11  1  0  0  0  0
  7  6  2  0  0  0  0
  8  1  2  0  0  0  0
  8  7  1  0  0  0  0
 12  7  1  0  0  0  0
 13  8  1  0  0  0  0
 14 15  2  0  0  0  0
 15 16  1  0  0  0  0
 16  9  1  0  0  0  0
 17 15  1  0  0  0  0
 17 20  1  0  0  0  0
 18 17  1  0  0  0  0
 19 17  1  0  0  0  0
M  RAD  3   2   2   3   3   4   2
M  END
