Coordinates from ORCA-job PhN2+~CF3COO-_B3LYPG-6-31G_dp-CH-Scan-d09-49-n800
 OpenBabel11261919373D

 20 19  0  0  0  0  0  0  0  0999 V2000
   -2.0575    0.6497   -0.2155 C   0  0  0  0  0  0  0  0  0  0  0  0
   -3.4492    0.4917   -0.4239 N   0  0  0  0  0  0  0  0  0  0  0  0
   -4.3713   -0.1146   -0.6225 N   0  0  0  0  0  0  0  0  0  0  0  0
   -1.4398    1.8971   -0.2671 C   0  0  0  0  0  0  0  0  0  0  0  0
   -0.0532    1.9003   -0.0860 C   0  0  0  0  0  0  0  0  0  0  0  0
    0.6545    0.7203    0.1453 C   0  0  0  0  0  0  0  0  0  0  0  0
   -0.0083   -0.5157    0.1917 C   0  0  0  0  0  0  0  0  0  0  0  0
   -1.3796   -0.5691    0.0047 C   0  0  0  0  0  0  0  0  0  0  0  0
   -2.1203    2.9770   -0.4573 H   0  0  0  0  0  0  0  0  0  0  0  0
    0.4763    2.8476   -0.1198 H   0  0  0  0  0  0  0  0  0  0  0  0
    1.7301    0.7542    0.2947 H   0  0  0  0  0  0  0  0  0  0  0  0
    0.5440   -1.4318    0.3726 H   0  0  0  0  0  0  0  0  0  0  0  0
   -1.9226   -1.5081    0.0295 H   0  0  0  0  0  0  0  0  0  0  0  0
   -4.4334    2.4777   -0.0066 O   0  0  0  0  0  0  0  0  0  0  0  0
   -4.1638    3.6835   -0.2427 C   0  0  0  0  0  0  0  0  0  0  0  0
   -3.0722    4.1977   -0.5714 O   0  0  0  0  0  0  0  0  0  0  0  0
   -5.3722    4.6472   -0.0714 C   0  0  0  0  0  0  0  0  0  0  0  0
   -5.1005    5.8883   -0.5020 F   0  0  0  0  0  0  0  0  0  0  0  0
   -6.4456    4.1981   -0.7529 F   0  0  0  0  0  0  0  0  0  0  0  0
   -5.7171    4.7276    1.2323 F   0  0  0  0  0  0  0  0  0  0  0  0
  1  8  1  0  0  0  0
  2  1  1  0  0  0  0
  3  2  2  0  0  0  0
  4  1  2  0  0  0  0
  4  5  1  0  0  0  0
  5  6  2  0  0  0  0
  6  7  1  0  0  0  0
  6 11  1  0  0  0  0
  7 12  1  0  0  0  0
  8 13  1  0  0  0  0
  8  7  2  0  0  0  0
  9  4  1  0  0  0  0
 10  5  1  0  0  0  0
 15 17  1  0  0  0  0
 15 14  1  0  0  0  0
 16 15  2  0  0  0  0
 17 20  1  0  0  0  0
 18 17  1  0  0  0  0
 19 17  1  0  0  0  0
M  RAD  2   3   2  14   2
M  END
