Coordinates from ORCA-job PhN2+~CF3COO-_B3LYPG-6-31G_dp-CH-Scan-d09-49-n800
 OpenBabel11261919373D

 20 19  0  0  0  0  0  0  0  0999 V2000
   -1.8963    0.3078   -0.1808 C   0  0  0  0  0  0  0  0  0  0  0  0
   -3.2587    0.0852   -0.3453 N   0  0  0  0  0  0  0  0  0  0  0  0
   -4.3621   -0.0272   -0.4724 N   0  0  0  0  0  0  0  0  0  0  0  0
   -1.5368    1.6588   -0.0350 C   0  0  0  0  0  0  0  0  0  0  0  0
   -0.1358    1.7881    0.1285 C   0  0  0  0  0  0  0  0  0  0  0  0
    0.7400    0.7051    0.1397 C   0  0  0  0  0  0  0  0  0  0  0  0
    0.2772   -0.6209   -0.0157 C   0  0  0  0  0  0  0  0  0  0  0  0
   -1.0721   -0.8472   -0.1817 C   0  0  0  0  0  0  0  0  0  0  0  0
   -2.7082    3.1307   -0.0449 H   0  0  0  0  0  0  0  0  0  0  0  0
    0.2851    2.7844    0.2539 H   0  0  0  0  0  0  0  0  0  0  0  0
    1.8068    0.8733    0.2719 H   0  0  0  0  0  0  0  0  0  0  0  0
    0.9739   -1.4525   -0.0041 H   0  0  0  0  0  0  0  0  0  0  0  0
   -1.4825   -1.8450   -0.3060 H   0  0  0  0  0  0  0  0  0  0  0  0
   -5.0643    2.5972   -0.3335 O   0  0  0  0  0  0  0  0  0  0  0  0
   -4.5538    3.6915   -0.1922 C   0  0  0  0  0  0  0  0  0  0  0  0
   -3.2867    3.9831   -0.0368 O   0  0  0  0  0  0  0  0  0  0  0  0
   -5.4131    4.9778   -0.1811 C   0  0  0  0  0  0  0  0  0  0  0  0
   -5.0528    5.7949   -1.1900 F   0  0  0  0  0  0  0  0  0  0  0  0
   -6.7116    4.6863   -0.3190 F   0  0  0  0  0  0  0  0  0  0  0  0
   -5.2497    5.6474    0.9763 F   0  0  0  0  0  0  0  0  0  0  0  0
  1  4  1  0  0  0  0
  2  1  1  0  0  0  0
  3  2  1  0  0  0  0
  4  5  2  0  0  0  0
  5  6  1  0  0  0  0
  5 10  1  0  0  0  0
  6 11  1  0  0  0  0
  7 12  1  0  0  0  0
  7  6  2  0  0  0  0
  8  1  2  0  0  0  0
  8  7  1  0  0  0  0
  9 16  1  0  0  0  0
 13  8  1  0  0  0  0
 14 15  2  0  0  0  0
 15 17  1  0  0  0  0
 15 16  1  0  0  0  0
 17 20  1  0  0  0  0
 18 17  1  0  0  0  0
 19 17  1  0  0  0  0
M  RAD  3   2   2   3   3   4   2
M  END
