Coordinates from ORCA-job PhN2+~CF3COO-_B3LYPG-6-31G_dp-CH-Scan-d09-49-n800
 OpenBabel11261919373D

 20 19  0  0  0  0  0  0  0  0999 V2000
   -1.8496    0.2904   -0.1716 C   0  0  0  0  0  0  0  0  0  0  0  0
   -3.2168    0.0943   -0.3291 N   0  0  0  0  0  0  0  0  0  0  0  0
   -4.3224   -0.0049   -0.4513 N   0  0  0  0  0  0  0  0  0  0  0  0
   -1.4690    1.6355   -0.0226 C   0  0  0  0  0  0  0  0  0  0  0  0
   -0.0633    1.7368    0.1332 C   0  0  0  0  0  0  0  0  0  0  0  0
    0.7928    0.6385    0.1347 C   0  0  0  0  0  0  0  0  0  0  0  0
    0.3060   -0.6794   -0.0234 C   0  0  0  0  0  0  0  0  0  0  0  0
   -1.0476   -0.8812   -0.1823 C   0  0  0  0  0  0  0  0  0  0  0  0
   -2.7596    3.2685   -0.0266 H   0  0  0  0  0  0  0  0  0  0  0  0
    0.3788    2.7240    0.2603 H   0  0  0  0  0  0  0  0  0  0  0  0
    1.8635    0.7867    0.2612 H   0  0  0  0  0  0  0  0  0  0  0  0
    0.9883   -1.5229   -0.0192 H   0  0  0  0  0  0  0  0  0  0  0  0
   -1.4767   -1.8711   -0.3083 H   0  0  0  0  0  0  0  0  0  0  0  0
   -5.0694    2.6430   -0.3378 O   0  0  0  0  0  0  0  0  0  0  0  0
   -4.6036    3.7536   -0.1931 C   0  0  0  0  0  0  0  0  0  0  0  0
   -3.3436    4.0894   -0.0224 O   0  0  0  0  0  0  0  0  0  0  0  0
   -5.5004    5.0132   -0.1927 C   0  0  0  0  0  0  0  0  0  0  0  0
   -5.1495    5.8413   -1.1950 F   0  0  0  0  0  0  0  0  0  0  0  0
   -6.7856    4.6794   -0.3503 F   0  0  0  0  0  0  0  0  0  0  0  0
   -5.3738    5.6837    0.9680 F   0  0  0  0  0  0  0  0  0  0  0  0
  1  4  1  0  0  0  0
  2  1  1  0  0  0  0
  3  2  1  0  0  0  0
  4  5  2  0  0  0  0
  5  6  1  0  0  0  0
  5 10  1  0  0  0  0
  6 11  1  0  0  0  0
  7 12  1  0  0  0  0
  7  6  2  0  0  0  0
  8  1  2  0  0  0  0
  8  7  1  0  0  0  0
  9 16  1  0  0  0  0
 13  8  1  0  0  0  0
 14 15  2  0  0  0  0
 15 17  1  0  0  0  0
 15 16  1  0  0  0  0
 17 20  1  0  0  0  0
 18 17  1  0  0  0  0
 19 17  1  0  0  0  0
M  RAD  3   2   2   3   3   4   2
M  END
