Coordinates from ORCA-job PhN2+~CF3COO-_B3LYPG-6-31G_dp-CH-Scan-d09-49-n800
 OpenBabel11261919373D

 20 19  0  0  0  0  0  0  0  0999 V2000
   -1.7265    0.2476   -0.1580 C   0  0  0  0  0  0  0  0  0  0  0  0
   -3.1042    0.1259   -0.3067 N   0  0  0  0  0  0  0  0  0  0  0  0
   -4.2148    0.0788   -0.4222 N   0  0  0  0  0  0  0  0  0  0  0  0
   -1.2863    1.5729   -0.0012 C   0  0  0  0  0  0  0  0  0  0  0  0
    0.1262    1.6008    0.1453 C   0  0  0  0  0  0  0  0  0  0  0  0
    0.9267    0.4621    0.1316 C   0  0  0  0  0  0  0  0  0  0  0  0
    0.3754   -0.8308   -0.0342 C   0  0  0  0  0  0  0  0  0  0  0  0
   -0.9868   -0.9656   -0.1850 C   0  0  0  0  0  0  0  0  0  0  0  0
   -2.8701    3.6186    0.0025 H   0  0  0  0  0  0  0  0  0  0  0  0
    0.6206    2.5629    0.2777 H   0  0  0  0  0  0  0  0  0  0  0  0
    2.0047    0.5555    0.2517 H   0  0  0  0  0  0  0  0  0  0  0  0
    1.0170   -1.7057   -0.0420 H   0  0  0  0  0  0  0  0  0  0  0  0
   -1.4648   -1.9324   -0.3162 H   0  0  0  0  0  0  0  0  0  0  0  0
   -5.0738    2.7704   -0.3273 O   0  0  0  0  0  0  0  0  0  0  0  0
   -4.7269    3.9201   -0.1910 C   0  0  0  0  0  0  0  0  0  0  0  0
   -3.4973    4.3764   -0.0066 O   0  0  0  0  0  0  0  0  0  0  0  0
   -5.7298    5.0955   -0.2161 C   0  0  0  0  0  0  0  0  0  0  0  0
   -5.4360    5.9406   -1.2208 F   0  0  0  0  0  0  0  0  0  0  0  0
   -6.9751    4.6437   -0.3897 F   0  0  0  0  0  0  0  0  0  0  0  0
   -5.6797    5.7815    0.9401 F   0  0  0  0  0  0  0  0  0  0  0  0
  1  4  1  0  0  0  0
  2  1  1  0  0  0  0
  3  2  1  0  0  0  0
  4  5  2  0  0  0  0
  5 10  1  0  0  0  0
  6  5  1  0  0  0  0
  6 11  1  0  0  0  0
  7  6  2  0  0  0  0
  8  1  2  0  0  0  0
  8  7  1  0  0  0  0
 12  7  1  0  0  0  0
 13  8  1  0  0  0  0
 14 15  2  0  0  0  0
 15 16  1  0  0  0  0
 16  9  1  0  0  0  0
 17 15  1  0  0  0  0
 17 20  1  0  0  0  0
 18 17  1  0  0  0  0
 19 17  1  0  0  0  0
M  RAD  3   2   2   3   3   4   2
M  END
