Coordinates from ORCA-job PhN2+~CF3COO-_B3LYPG-6-31G_dp-CH-Scan-d09-49-n800
 OpenBabel11261919373D

 20 19  0  0  0  0  0  0  0  0999 V2000
   -1.6401    0.2188   -0.1526 C   0  0  0  0  0  0  0  0  0  0  0  0
   -3.0226    0.1519   -0.3000 N   0  0  0  0  0  0  0  0  0  0  0  0
   -4.1349    0.1497   -0.4136 N   0  0  0  0  0  0  0  0  0  0  0  0
   -1.1571    1.5281    0.0095 C   0  0  0  0  0  0  0  0  0  0  0  0
    0.2572    1.5017    0.1547 C   0  0  0  0  0  0  0  0  0  0  0  0
    1.0160    0.3352    0.1348 C   0  0  0  0  0  0  0  0  0  0  0  0
    0.4186   -0.9372   -0.0369 C   0  0  0  0  0  0  0  0  0  0  0  0
   -0.9475   -1.0222   -0.1869 C   0  0  0  0  0  0  0  0  0  0  0  0
   -2.9372    3.8838    0.0048 H   0  0  0  0  0  0  0  0  0  0  0  0
    0.7880    2.4442    0.2913 H   0  0  0  0  0  0  0  0  0  0  0  0
    2.0969    0.3884    0.2544 H   0  0  0  0  0  0  0  0  0  0  0  0
    1.0291   -1.8342   -0.0498 H   0  0  0  0  0  0  0  0  0  0  0  0
   -1.4606   -1.9704   -0.3224 H   0  0  0  0  0  0  0  0  0  0  0  0
   -5.0576    2.8706   -0.3167 O   0  0  0  0  0  0  0  0  0  0  0  0
   -4.8043    4.0438   -0.1914 C   0  0  0  0  0  0  0  0  0  0  0  0
   -3.6084    4.5940   -0.0103 O   0  0  0  0  0  0  0  0  0  0  0  0
   -5.8905    5.1417   -0.2265 C   0  0  0  0  0  0  0  0  0  0  0  0
   -5.6585    5.9966   -1.2385 F   0  0  0  0  0  0  0  0  0  0  0  0
   -7.0974    4.5958   -0.3958 F   0  0  0  0  0  0  0  0  0  0  0  0
   -5.8905    5.8386    0.9238 F   0  0  0  0  0  0  0  0  0  0  0  0
  1  4  1  0  0  0  0
  2  1  1  0  0  0  0
  3  2  1  0  0  0  0
  4  5  2  0  0  0  0
  5 10  1  0  0  0  0
  6  5  1  0  0  0  0
  6 11  1  0  0  0  0
  7  6  2  0  0  0  0
  8  1  2  0  0  0  0
  8  7  1  0  0  0  0
 12  7  1  0  0  0  0
 13  8  1  0  0  0  0
 14 15  2  0  0  0  0
 15 16  1  0  0  0  0
 16  9  1  0  0  0  0
 17 15  1  0  0  0  0
 17 20  1  0  0  0  0
 18 17  1  0  0  0  0
 19 17  1  0  0  0  0
M  RAD  3   2   2   3   3   4   2
M  END
