Coordinates from ORCA-job PhN2+~CF3COO-_B3LYPG-6-31G_dp-CH-Scan-d09-49-n800
 OpenBabel11261919373D

 20 19  0  0  0  0  0  0  0  0999 V2000
   -1.5738    0.1976   -0.1527 C   0  0  0  0  0  0  0  0  0  0  0  0
   -2.9584    0.1731   -0.3006 N   0  0  0  0  0  0  0  0  0  0  0  0
   -4.0701    0.2078   -0.4181 N   0  0  0  0  0  0  0  0  0  0  0  0
   -1.0562    1.4947   -0.0010 C   0  0  0  0  0  0  0  0  0  0  0  0
    0.3578    1.4255    0.1451 C   0  0  0  0  0  0  0  0  0  0  0  0
    1.0818    0.2373    0.1351 C   0  0  0  0  0  0  0  0  0  0  0  0
    0.4474   -1.0191   -0.0267 C   0  0  0  0  0  0  0  0  0  0  0  0
   -0.9202   -1.0650   -0.1769 C   0  0  0  0  0  0  0  0  0  0  0  0
   -2.9888    4.0989    0.0037 H   0  0  0  0  0  0  0  0  0  0  0  0
    0.9174    2.3526    0.2744 H   0  0  0  0  0  0  0  0  0  0  0  0
    2.1640    0.2591    0.2551 H   0  0  0  0  0  0  0  0  0  0  0  0
    1.0318   -1.9335   -0.0319 H   0  0  0  0  0  0  0  0  0  0  0  0
   -1.4615   -1.9985   -0.3051 H   0  0  0  0  0  0  0  0  0  0  0  0
   -5.0344    2.9557   -0.3139 O   0  0  0  0  0  0  0  0  0  0  0  0
   -4.8595    4.1425   -0.1945 C   0  0  0  0  0  0  0  0  0  0  0  0
   -3.6977    4.7680   -0.0162 O   0  0  0  0  0  0  0  0  0  0  0  0
   -6.0118    5.1703   -0.2292 C   0  0  0  0  0  0  0  0  0  0  0  0
   -5.8202    6.0560   -1.2226 F   0  0  0  0  0  0  0  0  0  0  0  0
   -7.1784    4.5516   -0.4253 F   0  0  0  0  0  0  0  0  0  0  0  0
   -6.0706    5.8442    0.9331 F   0  0  0  0  0  0  0  0  0  0  0  0
  1  4  1  0  0  0  0
  2  1  1  0  0  0  0
  3  2  1  0  0  0  0
  4  5  2  0  0  0  0
  5 10  1  0  0  0  0
  6  5  1  0  0  0  0
  6 11  1  0  0  0  0
  7  6  2  0  0  0  0
  8  1  2  0  0  0  0
  8  7  1  0  0  0  0
 12  7  1  0  0  0  0
 13  8  1  0  0  0  0
 14 15  2  0  0  0  0
 15 16  1  0  0  0  0
 16  9  1  0  0  0  0
 17 15  1  0  0  0  0
 17 20  1  0  0  0  0
 18 17  1  0  0  0  0
 19 17  1  0  0  0  0
M  RAD  3   2   2   3   3   4   2
M  END
