Coordinates from ORCA-job PhN2+~CF3COO-_B3LYPG-6-31G_dp-CH-Scan-d09-49-n800
 OpenBabel11261919373D

 20 19  0  0  0  0  0  0  0  0999 V2000
   -1.8986    0.3087   -0.1813 C   0  0  0  0  0  0  0  0  0  0  0  0
   -3.2607    0.0849   -0.3463 N   0  0  0  0  0  0  0  0  0  0  0  0
   -4.3640   -0.0278   -0.4738 N   0  0  0  0  0  0  0  0  0  0  0  0
   -1.5400    1.6599   -0.0357 C   0  0  0  0  0  0  0  0  0  0  0  0
   -0.1393    1.7906    0.1283 C   0  0  0  0  0  0  0  0  0  0  0  0
    0.7374    0.7083    0.1401 C   0  0  0  0  0  0  0  0  0  0  0  0
    0.2758   -0.6181   -0.0152 C   0  0  0  0  0  0  0  0  0  0  0  0
   -1.0733   -0.8455   -0.1817 C   0  0  0  0  0  0  0  0  0  0  0  0
   -2.7054    3.1238   -0.0460 H   0  0  0  0  0  0  0  0  0  0  0  0
    0.2807    2.7873    0.2536 H   0  0  0  0  0  0  0  0  0  0  0  0
    1.8041    0.8774    0.2726 H   0  0  0  0  0  0  0  0  0  0  0  0
    0.9731   -1.4491   -0.0032 H   0  0  0  0  0  0  0  0  0  0  0  0
   -1.4828   -1.8437   -0.3059 H   0  0  0  0  0  0  0  0  0  0  0  0
   -5.0640    2.5950   -0.3329 O   0  0  0  0  0  0  0  0  0  0  0  0
   -4.5514    3.6885   -0.1921 C   0  0  0  0  0  0  0  0  0  0  0  0
   -3.2840    3.9780   -0.0378 O   0  0  0  0  0  0  0  0  0  0  0  0
   -5.4090    4.9760   -0.1805 C   0  0  0  0  0  0  0  0  0  0  0  0
   -5.0485    5.7925   -1.1899 F   0  0  0  0  0  0  0  0  0  0  0  0
   -6.7081    4.6864   -0.3171 F   0  0  0  0  0  0  0  0  0  0  0  0
   -5.2436    5.6458    0.9766 F   0  0  0  0  0  0  0  0  0  0  0  0
  1  4  1  0  0  0  0
  2  1  1  0  0  0  0
  3  2  1  0  0  0  0
  4  5  2  0  0  0  0
  5  6  1  0  0  0  0
  5 10  1  0  0  0  0
  6 11  1  0  0  0  0
  7 12  1  0  0  0  0
  7  6  2  0  0  0  0
  8  1  2  0  0  0  0
  8  7  1  0  0  0  0
  9 16  1  0  0  0  0
 13  8  1  0  0  0  0
 14 15  2  0  0  0  0
 15 17  1  0  0  0  0
 15 16  1  0  0  0  0
 17 20  1  0  0  0  0
 18 17  1  0  0  0  0
 19 17  1  0  0  0  0
M  RAD  3   2   2   3   3   4   2
M  END
