Coordinates from ORCA-job PhN2+~CF3COO-_B3LYPG-6-31G_dp-CH-Scan-d09-49-n800
 OpenBabel11261919373D

 20 19  0  0  0  0  0  0  0  0999 V2000
   -1.3878    0.1455   -0.1315 C   0  0  0  0  0  0  0  0  0  0  0  0
   -2.7724    0.2507   -0.2618 N   0  0  0  0  0  0  0  0  0  0  0  0
   -3.8775    0.3989   -0.3595 N   0  0  0  0  0  0  0  0  0  0  0  0
   -0.7671    1.3938    0.0326 C   0  0  0  0  0  0  0  0  0  0  0  0
    0.6393    1.1995    0.1609 C   0  0  0  0  0  0  0  0  0  0  0  0
    1.2595   -0.0451    0.1250 C   0  0  0  0  0  0  0  0  0  0  0  0
    0.5192   -1.2417   -0.0481 C   0  0  0  0  0  0  0  0  0  0  0  0
   -0.8487   -1.1695   -0.1829 C   0  0  0  0  0  0  0  0  0  0  0  0
   -3.1741    4.7363    0.0622 H   0  0  0  0  0  0  0  0  0  0  0  0
    1.2786    2.0731    0.2972 H   0  0  0  0  0  0  0  0  0  0  0  0
    2.3411   -0.1179    0.2325 H   0  0  0  0  0  0  0  0  0  0  0  0
    1.0249   -2.2017   -0.0739 H   0  0  0  0  0  0  0  0  0  0  0  0
   -1.4693   -2.0512   -0.3187 H   0  0  0  0  0  0  0  0  0  0  0  0
   -4.9522    3.2299   -0.2761 O   0  0  0  0  0  0  0  0  0  0  0  0
   -5.0118    4.4286   -0.1813 C   0  0  0  0  0  0  0  0  0  0  0  0
   -3.9885    5.2659    0.0103 O   0  0  0  0  0  0  0  0  0  0  0  0
   -6.3327    5.2236   -0.2693 C   0  0  0  0  0  0  0  0  0  0  0  0
   -6.2860    6.0923   -1.2943 F   0  0  0  0  0  0  0  0  0  0  0  0
   -7.3592    4.3922   -0.4566 F   0  0  0  0  0  0  0  0  0  0  0  0
   -6.5368    5.9158    0.8648 F   0  0  0  0  0  0  0  0  0  0  0  0
  1  4  1  0  0  0  0
  2  1  1  0  0  0  0
  3  2  1  0  0  0  0
  4  5  2  0  0  0  0
  5 10  1  0  0  0  0
  6  5  1  0  0  0  0
  6 11  1  0  0  0  0
  7  6  2  0  0  0  0
  8  1  2  0  0  0  0
  8  7  1  0  0  0  0
 12  7  1  0  0  0  0
 13  8  1  0  0  0  0
 14 15  2  0  0  0  0
 15 16  1  0  0  0  0
 16  9  1  0  0  0  0
 17 15  1  0  0  0  0
 17 20  1  0  0  0  0
 18 17  1  0  0  0  0
 19 17  1  0  0  0  0
M  RAD  3   2   2   3   3   4   2
M  END
