Coordinates from ORCA-job PhN2+~CF3COO-_B3LYPG-6-31G_dp-CH-Scan-d09-49-n800
 OpenBabel11261919373D

 20 19  0  0  0  0  0  0  0  0999 V2000
   -2.0605    0.6762   -0.1329 C   0  0  0  0  0  0  0  0  0  0  0  0
   -3.4709    0.5750   -0.2374 N   0  0  0  0  0  0  0  0  0  0  0  0
   -4.3909   -0.0672   -0.3166 N   0  0  0  0  0  0  0  0  0  0  0  0
   -1.4086    1.9036   -0.2118 C   0  0  0  0  0  0  0  0  0  0  0  0
   -0.0157    1.8868   -0.1177 C   0  0  0  0  0  0  0  0  0  0  0  0
    0.6785    0.6889    0.0549 C   0  0  0  0  0  0  0  0  0  0  0  0
   -0.0094   -0.5298    0.1310 C   0  0  0  0  0  0  0  0  0  0  0  0
   -1.3928   -0.5520    0.0338 C   0  0  0  0  0  0  0  0  0  0  0  0
   -1.9548    2.8147   -0.3420 H   0  0  0  0  0  0  0  0  0  0  0  0
    0.5223    2.8271   -0.1780 H   0  0  0  0  0  0  0  0  0  0  0  0
    1.7618    0.6977    0.1324 H   0  0  0  0  0  0  0  0  0  0  0  0
    0.5321   -1.4603    0.2662 H   0  0  0  0  0  0  0  0  0  0  0  0
   -1.9533   -1.4789    0.0876 H   0  0  0  0  0  0  0  0  0  0  0  0
   -4.3700    2.5326   -0.0602 O   0  0  0  0  0  0  0  0  0  0  0  0
   -4.1316    3.7715   -0.2396 C   0  0  0  0  0  0  0  0  0  0  0  0
   -3.0716    4.3562   -0.4802 O   0  0  0  0  0  0  0  0  0  0  0  0
   -5.4327    4.6264   -0.1371 C   0  0  0  0  0  0  0  0  0  0  0  0
   -5.1815    5.9396   -0.2455 F   0  0  0  0  0  0  0  0  0  0  0  0
   -6.2974    4.2891   -1.1188 F   0  0  0  0  0  0  0  0  0  0  0  0
   -6.0544    4.4217    1.0437 F   0  0  0  0  0  0  0  0  0  0  0  0
  1  8  1  0  0  0  0
  2  1  1  0  0  0  0
  3  2  2  0  0  0  0
  4  1  2  0  0  0  0
  4  5  1  0  0  0  0
  5  6  2  0  0  0  0
  6  7  1  0  0  0  0
  6 11  1  0  0  0  0
  7 12  1  0  0  0  0
  8 13  1  0  0  0  0
  8  7  2  0  0  0  0
  9  4  1  0  0  0  0
 10  5  1  0  0  0  0
 15 17  1  0  0  0  0
 15 14  1  0  0  0  0
 16 15  2  0  0  0  0
 17 20  1  0  0  0  0
 18 17  1  0  0  0  0
 19 17  1  0  0  0  0
M  RAD  2   3   2  14   2
M  END
