Coordinates from ORCA-job PhN2+~CF3COO-_B3LYPG-6-31G_dp-CH-Scan-d09-49-n800
 OpenBabel11261919373D

 20 19  0  0  0  0  0  0  0  0999 V2000
   -1.4850    0.1677   -0.1458 C   0  0  0  0  0  0  0  0  0  0  0  0
   -2.8711    0.2014   -0.2888 N   0  0  0  0  0  0  0  0  0  0  0  0
   -3.9813    0.2877   -0.3990 N   0  0  0  0  0  0  0  0  0  0  0  0
   -0.9223    1.4455    0.0037 C   0  0  0  0  0  0  0  0  0  0  0  0
    0.4898    1.3210    0.1447 C   0  0  0  0  0  0  0  0  0  0  0  0
    1.1683    0.1065    0.1323 C   0  0  0  0  0  0  0  0  0  0  0  0
    0.4865   -1.1257   -0.0273 C   0  0  0  0  0  0  0  0  0  0  0  0
   -0.8823   -1.1200   -0.1727 C   0  0  0  0  0  0  0  0  0  0  0  0
   -3.0712    4.3876    0.0158 H   0  0  0  0  0  0  0  0  0  0  0  0
    1.0856    2.2260    0.2718 H   0  0  0  0  0  0  0  0  0  0  0  0
    2.2511    0.0869    0.2483 H   0  0  0  0  0  0  0  0  0  0  0  0
    1.0365   -2.0612   -0.0346 H   0  0  0  0  0  0  0  0  0  0  0  0
   -1.4594   -2.0322   -0.2990 H   0  0  0  0  0  0  0  0  0  0  0  0
   -5.0077    3.0781   -0.3046 O   0  0  0  0  0  0  0  0  0  0  0  0
   -4.9360    4.2757   -0.1944 C   0  0  0  0  0  0  0  0  0  0  0  0
   -3.8288    4.9978   -0.0136 O   0  0  0  0  0  0  0  0  0  0  0  0
   -6.1677    5.2059   -0.2420 C   0  0  0  0  0  0  0  0  0  0  0  0
   -6.0337    6.1102   -1.2278 F   0  0  0  0  0  0  0  0  0  0  0  0
   -7.2763    4.4953   -0.4583 F   0  0  0  0  0  0  0  0  0  0  0  0
   -6.2966    5.8649    0.9231 F   0  0  0  0  0  0  0  0  0  0  0  0
  1  4  1  0  0  0  0
  2  1  1  0  0  0  0
  3  2  1  0  0  0  0
  4  5  2  0  0  0  0
  5 10  1  0  0  0  0
  6  5  1  0  0  0  0
  6 11  1  0  0  0  0
  7  6  2  0  0  0  0
  8  1  2  0  0  0  0
  8  7  1  0  0  0  0
 12  7  1  0  0  0  0
 13  8  1  0  0  0  0
 14 15  2  0  0  0  0
 15 16  1  0  0  0  0
 16  9  1  0  0  0  0
 17 15  1  0  0  0  0
 17 20  1  0  0  0  0
 18 17  1  0  0  0  0
 19 17  1  0  0  0  0
M  RAD  3   2   2   3   3   4   2
M  END
