Coordinates from ORCA-job PhN2+~CF3COO-_B3LYPG-6-31G_dp-CH-Scan-d09-49-n800
 OpenBabel11261919373D

 20 19  0  0  0  0  0  0  0  0999 V2000
   -1.2807    0.1331   -0.1872 C   0  0  0  0  0  0  0  0  0  0  0  0
   -2.6512    0.3139   -0.3765 N   0  0  0  0  0  0  0  0  0  0  0  0
   -3.7408    0.5255   -0.5216 N   0  0  0  0  0  0  0  0  0  0  0  0
   -0.5985    1.3501   -0.0369 C   0  0  0  0  0  0  0  0  0  0  0  0
    0.7891    1.0827    0.1546 C   0  0  0  0  0  0  0  0  0  0  0  0
    1.3384   -0.1949    0.1842 C   0  0  0  0  0  0  0  0  0  0  0  0
    0.5388   -1.3539    0.0183 C   0  0  0  0  0  0  0  0  0  0  0  0
   -0.8164   -1.2110   -0.1756 C   0  0  0  0  0  0  0  0  0  0  0  0
   -3.2862    5.0517   -0.0728 H   0  0  0  0  0  0  0  0  0  0  0  0
    1.4710    1.9238    0.2891 H   0  0  0  0  0  0  0  0  0  0  0  0
    2.4089   -0.3241    0.3392 H   0  0  0  0  0  0  0  0  0  0  0  0
    0.9900   -2.3407    0.0439 H   0  0  0  0  0  0  0  0  0  0  0  0
   -1.4800   -2.0610   -0.3101 H   0  0  0  0  0  0  0  0  0  0  0  0
   -4.9274    3.3849   -0.3085 O   0  0  0  0  0  0  0  0  0  0  0  0
   -5.0973    4.5720   -0.2047 C   0  0  0  0  0  0  0  0  0  0  0  0
   -4.1476    5.5038   -0.0723 O   0  0  0  0  0  0  0  0  0  0  0  0
   -6.4905    5.2375   -0.2075 C   0  0  0  0  0  0  0  0  0  0  0  0
   -6.5872    6.1118   -1.2241 F   0  0  0  0  0  0  0  0  0  0  0  0
   -7.4424    4.3126   -0.3436 F   0  0  0  0  0  0  0  0  0  0  0  0
   -6.6917    5.9013    0.9439 F   0  0  0  0  0  0  0  0  0  0  0  0
  1  8  2  0  0  0  0
  1  4  1  0  0  0  0
  2  1  1  0  0  0  0
  3  2  1  0  0  0  0
  4  5  2  0  0  0  0
  5  6  1  0  0  0  0
  5 10  1  0  0  0  0
  6 11  1  0  0  0  0
  7 12  1  0  0  0  0
  7  6  2  0  0  0  0
  8  7  1  0  0  0  0
  9 16  1  0  0  0  0
 13  8  1  0  0  0  0
 14 15  2  0  0  0  0
 15 16  1  0  0  0  0
 17 15  1  0  0  0  0
 17 20  1  0  0  0  0
 18 17  1  0  0  0  0
 19 17  1  0  0  0  0
M  RAD  3   2   2   3   3   4   2
M  END
