Coordinates from ORCA-job PhN2+~CF3COO-_B3LYPG-6-31G_dp-CH-Scan-d09-49-n800
 OpenBabel11261919373D

 20 19  0  0  0  0  0  0  0  0999 V2000
   -1.2441    0.1324   -0.2302 C   0  0  0  0  0  0  0  0  0  0  0  0
   -2.6045    0.3358   -0.4654 N   0  0  0  0  0  0  0  0  0  0  0  0
   -3.6838    0.5676   -0.6519 N   0  0  0  0  0  0  0  0  0  0  0  0
   -0.5422    1.3394   -0.0932 C   0  0  0  0  0  0  0  0  0  0  0  0
    0.8335    1.0506    0.1467 C   0  0  0  0  0  0  0  0  0  0  0  0
    1.3555   -0.2361    0.2281 C   0  0  0  0  0  0  0  0  0  0  0  0
    0.5376   -1.3836    0.0702 C   0  0  0  0  0  0  0  0  0  0  0  0
   -0.8081   -1.2198   -0.1682 C   0  0  0  0  0  0  0  0  0  0  0  0
   -3.3232    5.1270   -0.1805 H   0  0  0  0  0  0  0  0  0  0  0  0
    1.5281    1.8817    0.2781 H   0  0  0  0  0  0  0  0  0  0  0  0
    2.4179   -0.3819    0.4187 H   0  0  0  0  0  0  0  0  0  0  0  0
    0.9677   -2.3779    0.1368 H   0  0  0  0  0  0  0  0  0  0  0  0
   -1.4847   -2.0601   -0.2995 H   0  0  0  0  0  0  0  0  0  0  0  0
   -4.9361    3.4251   -0.3451 O   0  0  0  0  0  0  0  0  0  0  0  0
   -5.1274    4.6075   -0.2266 C   0  0  0  0  0  0  0  0  0  0  0  0
   -4.1932    5.5600   -0.1360 O   0  0  0  0  0  0  0  0  0  0  0  0
   -6.5334    5.2416   -0.1546 C   0  0  0  0  0  0  0  0  0  0  0  0
   -6.6935    6.1365   -1.1448 F   0  0  0  0  0  0  0  0  0  0  0  0
   -7.4703    4.2988   -0.2708 F   0  0  0  0  0  0  0  0  0  0  0  0
   -6.6975    5.8742    1.0201 F   0  0  0  0  0  0  0  0  0  0  0  0
  1  8  2  0  0  0  0
  1  4  1  0  0  0  0
  2  1  1  0  0  0  0
  3  2  1  0  0  0  0
  4  5  2  0  0  0  0
  5  6  1  0  0  0  0
  5 10  1  0  0  0  0
  6 11  1  0  0  0  0
  7 12  1  0  0  0  0
  7  6  2  0  0  0  0
  8  7  1  0  0  0  0
  9 16  1  0  0  0  0
 13  8  1  0  0  0  0
 14 15  2  0  0  0  0
 15 17  1  0  0  0  0
 15 16  1  0  0  0  0
 17 20  1  0  0  0  0
 18 17  1  0  0  0  0
 19 17  1  0  0  0  0
M  RAD  3   2   2   3   3   4   2
M  END
