Coordinates from ORCA-job PhN2+~CF3COO-_B3LYPG-6-31G_dp-CH-Scan-d09-49-n800
 OpenBabel11261919373D

 20 19  0  0  0  0  0  0  0  0999 V2000
   -2.0565    0.6717   -0.2498 C   0  0  0  0  0  0  0  0  0  0  0  0
   -3.4465    0.5419   -0.4966 N   0  0  0  0  0  0  0  0  0  0  0  0
   -4.3543   -0.0747   -0.7337 N   0  0  0  0  0  0  0  0  0  0  0  0
   -1.4144    1.9050   -0.3136 C   0  0  0  0  0  0  0  0  0  0  0  0
   -0.0342    1.8991   -0.0989 C   0  0  0  0  0  0  0  0  0  0  0  0
    0.6485    0.7141    0.1804 C   0  0  0  0  0  0  0  0  0  0  0  0
   -0.0346   -0.5093    0.2382 C   0  0  0  0  0  0  0  0  0  0  0  0
   -1.4022   -0.5485    0.0148 C   0  0  0  0  0  0  0  0  0  0  0  0
   -2.0585    2.9457   -0.5441 H   0  0  0  0  0  0  0  0  0  0  0  0
    0.5075    2.8387   -0.1431 H   0  0  0  0  0  0  0  0  0  0  0  0
    1.7197    0.7360    0.3584 H   0  0  0  0  0  0  0  0  0  0  0  0
    0.4986   -1.4286    0.4565 H   0  0  0  0  0  0  0  0  0  0  0  0
   -1.9593   -1.4787    0.0472 H   0  0  0  0  0  0  0  0  0  0  0  0
   -4.3857    2.4798    0.0134 O   0  0  0  0  0  0  0  0  0  0  0  0
   -4.1535    3.6892   -0.2711 C   0  0  0  0  0  0  0  0  0  0  0  0
   -3.1094    4.2194   -0.6928 O   0  0  0  0  0  0  0  0  0  0  0  0
   -5.3773    4.6192   -0.0235 C   0  0  0  0  0  0  0  0  0  0  0  0
   -5.1628    5.8691   -0.4604 F   0  0  0  0  0  0  0  0  0  0  0  0
   -6.4755    4.1455   -0.6472 F   0  0  0  0  0  0  0  0  0  0  0  0
   -5.6512    4.6842    1.2977 F   0  0  0  0  0  0  0  0  0  0  0  0
  1  8  1  0  0  0  0
  2  1  1  0  0  0  0
  3  2  2  0  0  0  0
  4  1  2  0  0  0  0
  4  5  1  0  0  0  0
  5  6  2  0  0  0  0
  6  7  1  0  0  0  0
  6 11  1  0  0  0  0
  7 12  1  0  0  0  0
  8 13  1  0  0  0  0
  8  7  2  0  0  0  0
  9  4  1  0  0  0  0
 10  5  1  0  0  0  0
 15 17  1  0  0  0  0
 15 14  1  0  0  0  0
 16 15  2  0  0  0  0
 17 20  1  0  0  0  0
 18 17  1  0  0  0  0
 19 17  1  0  0  0  0
M  RAD  2   3   2  14   2
M  END
