Coordinates from ORCA-job PhN2+~CF3COO-_B3LYPG-6-31G_dp-CH-Scan-d09-49-n800
 OpenBabel11261919373D

 20 19  0  0  0  0  0  0  0  0999 V2000
   -1.6425    0.2183   -0.1532 C   0  0  0  0  0  0  0  0  0  0  0  0
   -3.0246    0.1491   -0.3016 N   0  0  0  0  0  0  0  0  0  0  0  0
   -4.1378    0.1458   -0.4066 N   0  0  0  0  0  0  0  0  0  0  0  0
   -1.1620    1.5283    0.0115 C   0  0  0  0  0  0  0  0  0  0  0  0
    0.2522    1.5042    0.1571 C   0  0  0  0  0  0  0  0  0  0  0  0
    1.0132    0.3392    0.1355 C   0  0  0  0  0  0  0  0  0  0  0  0
    0.4183   -0.9341   -0.0386 C   0  0  0  0  0  0  0  0  0  0  0  0
   -0.9476   -1.0214   -0.1893 C   0  0  0  0  0  0  0  0  0  0  0  0
   -2.9350    3.8768    0.0030 H   0  0  0  0  0  0  0  0  0  0  0  0
    0.7812    2.4475    0.2954 H   0  0  0  0  0  0  0  0  0  0  0  0
    2.0940    0.3942    0.2557 H   0  0  0  0  0  0  0  0  0  0  0  0
    1.0304   -1.8300   -0.0528 H   0  0  0  0  0  0  0  0  0  0  0  0
   -1.4589   -1.9702   -0.3269 H   0  0  0  0  0  0  0  0  0  0  0  0
   -5.0592    2.8680   -0.3146 O   0  0  0  0  0  0  0  0  0  0  0  0
   -4.8024    4.0408   -0.1915 C   0  0  0  0  0  0  0  0  0  0  0  0
   -3.6049    4.5884   -0.0129 O   0  0  0  0  0  0  0  0  0  0  0  0
   -5.8859    5.1415   -0.2268 C   0  0  0  0  0  0  0  0  0  0  0  0
   -5.6533    5.9938   -1.2408 F   0  0  0  0  0  0  0  0  0  0  0  0
   -7.0945    4.5984   -0.3931 F   0  0  0  0  0  0  0  0  0  0  0  0
   -5.8822    5.8405    0.9222 F   0  0  0  0  0  0  0  0  0  0  0  0
  1  4  1  0  0  0  0
  2  1  1  0  0  0  0
  3  2  1  0  0  0  0
  4  5  2  0  0  0  0
  5 10  1  0  0  0  0
  6  5  1  0  0  0  0
  6 11  1  0  0  0  0
  7  6  2  0  0  0  0
  8  1  2  0  0  0  0
  8  7  1  0  0  0  0
 12  7  1  0  0  0  0
 13  8  1  0  0  0  0
 14 15  2  0  0  0  0
 15 16  1  0  0  0  0
 16  9  1  0  0  0  0
 17 15  1  0  0  0  0
 17 20  1  0  0  0  0
 18 17  1  0  0  0  0
 19 17  1  0  0  0  0
M  RAD  3   2   2   3   3   4   2
M  END
