Coordinates from ORCA-job PhN2+~CF3COO-_B3LYPG-6-31G_dp-CH-Scan-d09-49-n800
 OpenBabel11261919373D

 20 19  0  0  0  0  0  0  0  0999 V2000
   -1.7230    0.2466   -0.1576 C   0  0  0  0  0  0  0  0  0  0  0  0
   -3.1009    0.1273   -0.3061 N   0  0  0  0  0  0  0  0  0  0  0  0
   -4.2116    0.0817   -0.4218 N   0  0  0  0  0  0  0  0  0  0  0  0
   -1.2809    1.5712   -0.0006 C   0  0  0  0  0  0  0  0  0  0  0  0
    0.1317    1.5968    0.1457 C   0  0  0  0  0  0  0  0  0  0  0  0
    0.9305    0.4569    0.1316 C   0  0  0  0  0  0  0  0  0  0  0  0
    0.3772   -0.8352   -0.0345 C   0  0  0  0  0  0  0  0  0  0  0  0
   -0.9853   -0.9678   -0.1850 C   0  0  0  0  0  0  0  0  0  0  0  0
   -2.8731    3.6293    0.0035 H   0  0  0  0  0  0  0  0  0  0  0  0
    0.6277    2.5581    0.2782 H   0  0  0  0  0  0  0  0  0  0  0  0
    2.0087    0.5486    0.2515 H   0  0  0  0  0  0  0  0  0  0  0  0
    1.0175   -1.7111   -0.0427 H   0  0  0  0  0  0  0  0  0  0  0  0
   -1.4648   -1.9338   -0.3165 H   0  0  0  0  0  0  0  0  0  0  0  0
   -5.0733    2.7741   -0.3269 O   0  0  0  0  0  0  0  0  0  0  0  0
   -4.7301    3.9249   -0.1909 C   0  0  0  0  0  0  0  0  0  0  0  0
   -3.5019    4.3852   -0.0060 O   0  0  0  0  0  0  0  0  0  0  0  0
   -5.7364    5.0974   -0.2168 C   0  0  0  0  0  0  0  0  0  0  0  0
   -5.4447    5.9428   -1.2219 F   0  0  0  0  0  0  0  0  0  0  0  0
   -6.9803    4.6418   -0.3905 F   0  0  0  0  0  0  0  0  0  0  0  0
   -5.6885    5.7841    0.9390 F   0  0  0  0  0  0  0  0  0  0  0  0
  1  4  1  0  0  0  0
  2  1  1  0  0  0  0
  3  2  1  0  0  0  0
  4  5  2  0  0  0  0
  5 10  1  0  0  0  0
  6  5  1  0  0  0  0
  6 11  1  0  0  0  0
  7  6  2  0  0  0  0
  8  1  2  0  0  0  0
  8  7  1  0  0  0  0
 12  7  1  0  0  0  0
 13  8  1  0  0  0  0
 14 15  2  0  0  0  0
 15 16  1  0  0  0  0
 16  9  1  0  0  0  0
 17 15  1  0  0  0  0
 17 20  1  0  0  0  0
 18 17  1  0  0  0  0
 19 17  1  0  0  0  0
M  RAD  3   2   2   3   3   4   2
M  END
