Coordinates from ORCA-job PhN2+~CF3COO-_B3LYPG-6-31G_dp-CH-Scan-d09-49-n800
 OpenBabel11261919373D

 20 19  0  0  0  0  0  0  0  0999 V2000
   -1.7814    0.2670   -0.1630 C   0  0  0  0  0  0  0  0  0  0  0  0
   -3.1549    0.1126   -0.3148 N   0  0  0  0  0  0  0  0  0  0  0  0
   -4.2636    0.0400   -0.4328 N   0  0  0  0  0  0  0  0  0  0  0  0
   -1.3675    1.6014   -0.0099 C   0  0  0  0  0  0  0  0  0  0  0  0
    0.0426    1.6621    0.1397 C   0  0  0  0  0  0  0  0  0  0  0  0
    0.8680    0.5409    0.1320 C   0  0  0  0  0  0  0  0  0  0  0  0
    0.3451   -0.7636   -0.0300 C   0  0  0  0  0  0  0  0  0  0  0  0
   -1.0138   -0.9283   -0.1833 C   0  0  0  0  0  0  0  0  0  0  0  0
   -2.8234    3.4611   -0.0097 H   0  0  0  0  0  0  0  0  0  0  0  0
    0.5142    2.6356    0.2694 H   0  0  0  0  0  0  0  0  0  0  0  0
    1.9433    0.6587    0.2540 H   0  0  0  0  0  0  0  0  0  0  0  0
    1.0051   -1.6247   -0.0330 H   0  0  0  0  0  0  0  0  0  0  0  0
   -1.4702   -1.9057   -0.3119 H   0  0  0  0  0  0  0  0  0  0  0  0
   -5.0743    2.7116   -0.3336 O   0  0  0  0  0  0  0  0  0  0  0  0
   -4.6732    3.8447   -0.1924 C   0  0  0  0  0  0  0  0  0  0  0  0
   -3.4278    4.2463   -0.0124 O   0  0  0  0  0  0  0  0  0  0  0  0
   -5.6278    5.0602   -0.2062 C   0  0  0  0  0  0  0  0  0  0  0  0
   -5.3042    5.9001   -1.2068 F   0  0  0  0  0  0  0  0  0  0  0  0
   -6.8920    4.6622   -0.3776 F   0  0  0  0  0  0  0  0  0  0  0  0
   -5.5459    5.7371    0.9540 F   0  0  0  0  0  0  0  0  0  0  0  0
  1  4  1  0  0  0  0
  2  1  1  0  0  0  0
  3  2  1  0  0  0  0
  4  5  2  0  0  0  0
  5 10  1  0  0  0  0
  6  5  1  0  0  0  0
  6 11  1  0  0  0  0
  7  6  2  0  0  0  0
  8  1  2  0  0  0  0
  8  7  1  0  0  0  0
 12  7  1  0  0  0  0
 13  8  1  0  0  0  0
 14 15  2  0  0  0  0
 15 16  1  0  0  0  0
 16  9  1  0  0  0  0
 17 15  1  0  0  0  0
 17 20  1  0  0  0  0
 18 17  1  0  0  0  0
 19 17  1  0  0  0  0
M  RAD  3   2   2   3   3   4   2
M  END
