Coordinates from ORCA-job PhN2+~CF3COO-_B3LYPG-6-31G_dp-CH-Scan-d09-49-n800
 OpenBabel11261919373D

 20 19  0  0  0  0  0  0  0  0999 V2000
   -1.4194    0.1517   -0.1372 C   0  0  0  0  0  0  0  0  0  0  0  0
   -2.8050    0.2326   -0.2720 N   0  0  0  0  0  0  0  0  0  0  0  0
   -3.9121    0.3601   -0.3754 N   0  0  0  0  0  0  0  0  0  0  0  0
   -0.8181    1.4109    0.0169 C   0  0  0  0  0  0  0  0  0  0  0  0
    0.5907    1.2403    0.1495 C   0  0  0  0  0  0  0  0  0  0  0  0
    1.2306    0.0054    0.1259 C   0  0  0  0  0  0  0  0  0  0  0  0
    0.5096   -1.2041   -0.0376 C   0  0  0  0  0  0  0  0  0  0  0  0
   -0.8590   -1.1547   -0.1756 C   0  0  0  0  0  0  0  0  0  0  0  0
   -3.1396    4.6174    0.0549 H   0  0  0  0  0  0  0  0  0  0  0  0
    1.2157    2.1252    0.2790 H   0  0  0  0  0  0  0  0  0  0  0  0
    2.3129   -0.0492    0.2359 H   0  0  0  0  0  0  0  0  0  0  0  0
    1.0303   -2.1563   -0.0538 H   0  0  0  0  0  0  0  0  0  0  0  0
   -1.4653   -2.0474   -0.3046 H   0  0  0  0  0  0  0  0  0  0  0  0
   -4.9738    3.1778   -0.2886 O   0  0  0  0  0  0  0  0  0  0  0  0
   -4.9883    4.3774   -0.1849 C   0  0  0  0  0  0  0  0  0  0  0  0
   -3.9352    5.1754    0.0091 O   0  0  0  0  0  0  0  0  0  0  0  0
   -6.2797    5.2208   -0.2610 C   0  0  0  0  0  0  0  0  0  0  0  0
   -6.1984    6.1087   -1.2672 F   0  0  0  0  0  0  0  0  0  0  0  0
   -7.3348    4.4310   -0.4686 F   0  0  0  0  0  0  0  0  0  0  0  0
   -6.4628    5.8959    0.8870 F   0  0  0  0  0  0  0  0  0  0  0  0
  1  4  1  0  0  0  0
  2  1  1  0  0  0  0
  3  2  1  0  0  0  0
  4  5  2  0  0  0  0
  5 10  1  0  0  0  0
  6  5  1  0  0  0  0
  6 11  1  0  0  0  0
  7  6  2  0  0  0  0
  8  1  2  0  0  0  0
  8  7  1  0  0  0  0
 12  7  1  0  0  0  0
 13  8  1  0  0  0  0
 14 15  2  0  0  0  0
 15 16  1  0  0  0  0
 16  9  1  0  0  0  0
 17 15  1  0  0  0  0
 17 20  1  0  0  0  0
 18 17  1  0  0  0  0
 19 17  1  0  0  0  0
M  RAD  3   2   2   3   3   4   2
M  END
