Coordinates from ORCA-job PhN2+~CF3COO-_B3LYPG-6-31G_dp-CH-Scan-d09-49-n800
 OpenBabel11261919373D

 20 19  0  0  0  0  0  0  0  0999 V2000
   -1.3038    0.7316   -1.2193 C   0  0  0  0  0  0  0  0  0  0  0  0
   -2.1745    0.8660   -2.3001 N   0  0  0  0  0  0  0  0  0  0  0  0
   -2.8056    0.9894   -3.2157 N   0  0  0  0  0  0  0  0  0  0  0  0
    0.0260    0.9764   -1.5924 C   0  0  0  0  0  0  0  0  0  0  0  0
    0.8648    0.8119   -0.4507 C   0  0  0  0  0  0  0  0  0  0  0  0
    0.3984    0.4534    0.8100 C   0  0  0  0  0  0  0  0  0  0  0  0
   -0.9801    0.2331    1.0609 C   0  0  0  0  0  0  0  0  0  0  0  0
   -1.8811    0.3734    0.0293 C   0  0  0  0  0  0  0  0  0  0  0  0
   -2.8867    4.7419   -0.6920 H   0  0  0  0  0  0  0  0  0  0  0  0
    1.9387    0.9721   -0.5617 H   0  0  0  0  0  0  0  0  0  0  0  0
    1.0982    0.3365    1.6365 H   0  0  0  0  0  0  0  0  0  0  0  0
   -1.3197   -0.0419    2.0543 H   0  0  0  0  0  0  0  0  0  0  0  0
   -2.9504    0.2320    0.1571 H   0  0  0  0  0  0  0  0  0  0  0  0
   -4.0485    2.7077   -0.8665 O   0  0  0  0  0  0  0  0  0  0  0  0
   -4.3561    3.6738   -0.2146 C   0  0  0  0  0  0  0  0  0  0  0  0
   -3.6814    4.8229   -0.1364 O   0  0  0  0  0  0  0  0  0  0  0  0
   -5.6259    3.7414    0.6617 C   0  0  0  0  0  0  0  0  0  0  0  0
   -6.4441    4.7077    0.2137 F   0  0  0  0  0  0  0  0  0  0  0  0
   -6.2714    2.5746    0.6227 F   0  0  0  0  0  0  0  0  0  0  0  0
   -5.2982    4.0151    1.9350 F   0  0  0  0  0  0  0  0  0  0  0  0
  1  8  1  0  0  0  0
  2  1  1  0  0  0  0
  3  2  1  0  0  0  0
  4  1  2  0  0  0  0
  4  5  1  0  0  0  0
  5  6  2  0  0  0  0
  6  7  1  0  0  0  0
  6 11  1  0  0  0  0
  7 12  1  0  0  0  0
  8 13  1  0  0  0  0
  8  7  2  0  0  0  0
  9 16  1  0  0  0  0
 10  5  1  0  0  0  0
 14 15  2  0  0  0  0
 15 16  1  0  0  0  0
 15 17  1  0  0  0  0
 17 20  1  0  0  0  0
 18 17  1  0  0  0  0
 19 17  1  0  0  0  0
M  RAD  3   2   2   3   3   4   2
M  END
