Coordinates from ORCA-job PhN2+~CF3COO-_B3LYPG-6-31G_dp-CH-Scan-d09-49-n800
 OpenBabel11261919373D

 20 19  0  0  0  0  0  0  0  0999 V2000
   -1.3216    0.7122   -1.2182 C   0  0  0  0  0  0  0  0  0  0  0  0
   -2.2023    0.8188   -2.2942 N   0  0  0  0  0  0  0  0  0  0  0  0
   -2.8408    0.9224   -3.2070 N   0  0  0  0  0  0  0  0  0  0  0  0
   -0.0014    0.9935   -1.5998 C   0  0  0  0  0  0  0  0  0  0  0  0
    0.8482    0.8572   -0.4624 C   0  0  0  0  0  0  0  0  0  0  0  0
    0.3993    0.4909    0.8025 C   0  0  0  0  0  0  0  0  0  0  0  0
   -0.9707    0.2313    1.0617 C   0  0  0  0  0  0  0  0  0  0  0  0
   -1.8810    0.3413    0.0346 C   0  0  0  0  0  0  0  0  0  0  0  0
   -2.8151    4.6941   -0.6013 H   0  0  0  0  0  0  0  0  0  0  0  0
    1.9164    1.0472   -0.5801 H   0  0  0  0  0  0  0  0  0  0  0  0
    1.1067    0.3978    1.6256 H   0  0  0  0  0  0  0  0  0  0  0  0
   -1.2966   -0.0508    2.0578 H   0  0  0  0  0  0  0  0  0  0  0  0
   -2.9446    0.1664    0.1691 H   0  0  0  0  0  0  0  0  0  0  0  0
   -4.0517    2.7119   -0.8802 O   0  0  0  0  0  0  0  0  0  0  0  0
   -4.3395    3.6686   -0.2057 C   0  0  0  0  0  0  0  0  0  0  0  0
   -3.6230    4.7864   -0.0673 O   0  0  0  0  0  0  0  0  0  0  0  0
   -5.6320    3.7592    0.6350 C   0  0  0  0  0  0  0  0  0  0  0  0
   -6.3881    4.7854    0.2115 F   0  0  0  0  0  0  0  0  0  0  0  0
   -6.3324    2.6296    0.5210 F   0  0  0  0  0  0  0  0  0  0  0  0
   -5.3311    3.9556    1.9292 F   0  0  0  0  0  0  0  0  0  0  0  0
  1  8  1  0  0  0  0
  2  1  1  0  0  0  0
  3  2  1  0  0  0  0
  4  1  2  0  0  0  0
  4  5  1  0  0  0  0
  5  6  2  0  0  0  0
  6  7  1  0  0  0  0
  6 11  1  0  0  0  0
  7 12  1  0  0  0  0
  8 13  1  0  0  0  0
  8  7  2  0  0  0  0
  9 16  1  0  0  0  0
 10  5  1  0  0  0  0
 14 15  2  0  0  0  0
 15 16  1  0  0  0  0
 15 17  1  0  0  0  0
 17 20  1  0  0  0  0
 18 17  1  0  0  0  0
 19 17  1  0  0  0  0
M  RAD  3   2   2   3   3   4   2
M  END
