Coordinates from ORCA-job PhN2+~CF3COO-_B3LYPG-6-31G_dp-CH-Scan-d09-49-n800
 OpenBabel11261919373D

 20 19  0  0  0  0  0  0  0  0999 V2000
   -1.7679    0.2623   -0.1616 C   0  0  0  0  0  0  0  0  0  0  0  0
   -3.1425    0.1161   -0.3125 N   0  0  0  0  0  0  0  0  0  0  0  0
   -4.2517    0.0495   -0.4298 N   0  0  0  0  0  0  0  0  0  0  0  0
   -1.3474    1.5945   -0.0077 C   0  0  0  0  0  0  0  0  0  0  0  0
    0.0633    1.6471    0.1410 C   0  0  0  0  0  0  0  0  0  0  0  0
    0.8826    0.5216    0.1318 C   0  0  0  0  0  0  0  0  0  0  0  0
    0.3527   -0.7801   -0.0310 C   0  0  0  0  0  0  0  0  0  0  0  0
   -1.0071   -0.9375   -0.1836 C   0  0  0  0  0  0  0  0  0  0  0  0
   -2.8353    3.4991   -0.0068 H   0  0  0  0  0  0  0  0  0  0  0  0
    0.5406    2.6179    0.2713 H   0  0  0  0  0  0  0  0  0  0  0  0
    1.9586    0.6334    0.2532 H   0  0  0  0  0  0  0  0  0  0  0  0
    1.0081   -1.6447   -0.0353 H   0  0  0  0  0  0  0  0  0  0  0  0
   -1.4689   -1.9123   -0.3128 H   0  0  0  0  0  0  0  0  0  0  0  0
   -5.0748    2.7256   -0.3322 O   0  0  0  0  0  0  0  0  0  0  0  0
   -4.6867    3.8629   -0.1922 C   0  0  0  0  0  0  0  0  0  0  0  0
   -3.4448    4.2777   -0.0109 O   0  0  0  0  0  0  0  0  0  0  0  0
   -5.6529    5.0691   -0.2087 C   0  0  0  0  0  0  0  0  0  0  0  0
   -5.3358    5.9107   -1.2097 F   0  0  0  0  0  0  0  0  0  0  0  0
   -6.9127    4.6583   -0.3814 F   0  0  0  0  0  0  0  0  0  0  0  0
   -5.5791    5.7478    0.9509 F   0  0  0  0  0  0  0  0  0  0  0  0
  1  4  1  0  0  0  0
  2  1  1  0  0  0  0
  3  2  1  0  0  0  0
  4  5  2  0  0  0  0
  5 10  1  0  0  0  0
  6  5  1  0  0  0  0
  6 11  1  0  0  0  0
  7  6  2  0  0  0  0
  8  1  2  0  0  0  0
  8  7  1  0  0  0  0
 12  7  1  0  0  0  0
 13  8  1  0  0  0  0
 14 15  2  0  0  0  0
 15 16  1  0  0  0  0
 16  9  1  0  0  0  0
 17 15  1  0  0  0  0
 17 20  1  0  0  0  0
 18 17  1  0  0  0  0
 19 17  1  0  0  0  0
M  RAD  3   2   2   3   3   4   2
M  END
