Coordinates from ORCA-job PhN2+~CF3COO-_B3LYPG-6-31G_dp-CH-Scan-d09-49-n800
 OpenBabel11261919373D

 20 19  0  0  0  0  0  0  0  0999 V2000
   -1.4444    0.1565   -0.1425 C   0  0  0  0  0  0  0  0  0  0  0  0
   -2.8302    0.2188   -0.2837 N   0  0  0  0  0  0  0  0  0  0  0  0
   -3.9390    0.3301   -0.3855 N   0  0  0  0  0  0  0  0  0  0  0  0
   -0.8593    1.4235    0.0111 C   0  0  0  0  0  0  0  0  0  0  0  0
    0.5509    1.2718    0.1495 C   0  0  0  0  0  0  0  0  0  0  0  0
    1.2067    0.0450    0.1316 C   0  0  0  0  0  0  0  0  0  0  0  0
    0.5019   -1.1739   -0.0318 C   0  0  0  0  0  0  0  0  0  0  0  0
   -0.8667   -1.1424   -0.1753 C   0  0  0  0  0  0  0  0  0  0  0  0
   -3.1118    4.5255    0.0264 H   0  0  0  0  0  0  0  0  0  0  0  0
    1.1639    2.1650    0.2789 H   0  0  0  0  0  0  0  0  0  0  0  0
    2.2891    0.0047    0.2460 H   0  0  0  0  0  0  0  0  0  0  0  0
    1.0348   -2.1194   -0.0436 H   0  0  0  0  0  0  0  0  0  0  0  0
   -1.4609   -2.0432   -0.3045 H   0  0  0  0  0  0  0  0  0  0  0  0
   -4.9904    3.1382   -0.2963 O   0  0  0  0  0  0  0  0  0  0  0  0
   -4.9692    4.3379   -0.1916 C   0  0  0  0  0  0  0  0  0  0  0  0
   -3.8922    5.1054   -0.0095 O   0  0  0  0  0  0  0  0  0  0  0  0
   -6.2372    5.2173   -0.2498 C   0  0  0  0  0  0  0  0  0  0  0  0
   -6.1380    6.1149   -1.2457 F   0  0  0  0  0  0  0  0  0  0  0  0
   -7.3155    4.4599   -0.4594 F   0  0  0  0  0  0  0  0  0  0  0  0
   -6.3940    5.8833    0.9075 F   0  0  0  0  0  0  0  0  0  0  0  0
  1  4  1  0  0  0  0
  2  1  1  0  0  0  0
  3  2  1  0  0  0  0
  4  5  2  0  0  0  0
  5 10  1  0  0  0  0
  6  5  1  0  0  0  0
  6 11  1  0  0  0  0
  7  6  2  0  0  0  0
  8  1  2  0  0  0  0
  8  7  1  0  0  0  0
 12  7  1  0  0  0  0
 13  8  1  0  0  0  0
 14 15  2  0  0  0  0
 15 16  1  0  0  0  0
 16  9  1  0  0  0  0
 17 15  1  0  0  0  0
 17 20  1  0  0  0  0
 18 17  1  0  0  0  0
 19 17  1  0  0  0  0
M  RAD  3   2   2   3   3   4   2
M  END
