Coordinates from ORCA-job PhN2+~CF3COO-_B3LYPG-6-31G_dp-CH-Scan-d09-49-n800
 OpenBabel11261919373D

 20 19  0  0  0  0  0  0  0  0999 V2000
   -1.3689    0.1431   -0.1369 C   0  0  0  0  0  0  0  0  0  0  0  0
   -2.7519    0.2629   -0.2735 N   0  0  0  0  0  0  0  0  0  0  0  0
   -3.8549    0.4235   -0.3762 N   0  0  0  0  0  0  0  0  0  0  0  0
   -0.7369    1.3852    0.0298 C   0  0  0  0  0  0  0  0  0  0  0  0
    0.6670    1.1766    0.1650 C   0  0  0  0  0  0  0  0  0  0  0  0
    1.2748   -0.0741    0.1326 C   0  0  0  0  0  0  0  0  0  0  0  0
    0.5232   -1.2633   -0.0439 C   0  0  0  0  0  0  0  0  0  0  0  0
   -0.8432   -1.1773   -0.1854 C   0  0  0  0  0  0  0  0  0  0  0  0
   -3.1928    4.8036    0.0471 H   0  0  0  0  0  0  0  0  0  0  0  0
    1.3145    2.0438    0.3042 H   0  0  0  0  0  0  0  0  0  0  0  0
    2.3550   -0.1580    0.2455 H   0  0  0  0  0  0  0  0  0  0  0  0
    1.0193   -2.2284   -0.0670 H   0  0  0  0  0  0  0  0  0  0  0  0
   -1.4720   -2.0528   -0.3241 H   0  0  0  0  0  0  0  0  0  0  0  0
   -4.9402    3.2601   -0.2759 O   0  0  0  0  0  0  0  0  0  0  0  0
   -5.0251    4.4573   -0.1825 C   0  0  0  0  0  0  0  0  0  0  0  0
   -4.0181    5.3164    0.0005 O   0  0  0  0  0  0  0  0  0  0  0  0
   -6.3630    5.2241   -0.2635 C   0  0  0  0  0  0  0  0  0  0  0  0
   -6.3451    6.0823   -1.2983 F   0  0  0  0  0  0  0  0  0  0  0  0
   -7.3740    4.3697   -0.4309 F   0  0  0  0  0  0  0  0  0  0  0  0
   -6.5691    5.9241    0.8652 F   0  0  0  0  0  0  0  0  0  0  0  0
  1  4  1  0  0  0  0
  2  1  1  0  0  0  0
  3  2  1  0  0  0  0
  4  5  2  0  0  0  0
  5 10  1  0  0  0  0
  6  5  1  0  0  0  0
  6 11  1  0  0  0  0
  7  6  2  0  0  0  0
  8  1  2  0  0  0  0
  8  7  1  0  0  0  0
 12  7  1  0  0  0  0
 13  8  1  0  0  0  0
 14 15  2  0  0  0  0
 15 16  1  0  0  0  0
 16  9  1  0  0  0  0
 17 15  1  0  0  0  0
 17 20  1  0  0  0  0
 18 17  1  0  0  0  0
 19 17  1  0  0  0  0
M  RAD  3   2   2   3   3   4   2
M  END
