Coordinates from ORCA-job PhN2+~CF3COO-_B3LYPG-6-31G_dp-CH-Scan-d09-49-n800
 OpenBabel11261919373D

 20 19  0  0  0  0  0  0  0  0999 V2000
   -1.9520    0.3335   -0.1966 C   0  0  0  0  0  0  0  0  0  0  0  0
   -3.3102    0.0913   -0.3740 N   0  0  0  0  0  0  0  0  0  0  0  0
   -4.4143   -0.0000   -0.5077 N   0  0  0  0  0  0  0  0  0  0  0  0
   -1.6078    1.6871   -0.0535 C   0  0  0  0  0  0  0  0  0  0  0  0
   -0.2167    1.8512    0.1245 C   0  0  0  0  0  0  0  0  0  0  0  0
    0.6783    0.7832    0.1506 C   0  0  0  0  0  0  0  0  0  0  0  0
    0.2397   -0.5494   -0.0028 C   0  0  0  0  0  0  0  0  0  0  0  0
   -1.1048   -0.8013   -0.1822 C   0  0  0  0  0  0  0  0  0  0  0  0
   -2.6138    2.9258   -0.0749 H   0  0  0  0  0  0  0  0  0  0  0  0
    0.1774    2.8579    0.2486 H   0  0  0  0  0  0  0  0  0  0  0  0
    1.7401    0.9714    0.2932 H   0  0  0  0  0  0  0  0  0  0  0  0
    0.9500   -1.3689    0.0206 H   0  0  0  0  0  0  0  0  0  0  0  0
   -1.4952   -1.8068   -0.3053 H   0  0  0  0  0  0  0  0  0  0  0  0
   -5.0634    2.5390   -0.3075 O   0  0  0  0  0  0  0  0  0  0  0  0
   -4.4919    3.6133   -0.1877 C   0  0  0  0  0  0  0  0  0  0  0  0
   -3.2229    3.8516   -0.0695 O   0  0  0  0  0  0  0  0  0  0  0  0
   -5.3131    4.9266   -0.1661 C   0  0  0  0  0  0  0  0  0  0  0  0
   -4.9551    5.7267   -1.1915 F   0  0  0  0  0  0  0  0  0  0  0  0
   -6.6266    4.6833   -0.2669 F   0  0  0  0  0  0  0  0  0  0  0  0
   -5.0990    5.6034    0.9805 F   0  0  0  0  0  0  0  0  0  0  0  0
  1  8  2  0  0  0  0
  1  4  1  0  0  0  0
  2  1  1  0  0  0  0
  3  2  1  0  0  0  0
  4  5  2  0  0  0  0
  5  6  1  0  0  0  0
  5 10  1  0  0  0  0
  6 11  1  0  0  0  0
  7 12  1  0  0  0  0
  7  6  2  0  0  0  0
  8  7  1  0  0  0  0
  9 16  1  0  0  0  0
 13  8  1  0  0  0  0
 14 15  2  0  0  0  0
 15 17  1  0  0  0  0
 15 16  1  0  0  0  0
 17 20  1  0  0  0  0
 18 17  1  0  0  0  0
 19 17  1  0  0  0  0
M  RAD  3   2   2   3   3   4   2
M  END
