Coordinates from ORCA-job PhN2+~CF3COO-_B3LYPG-6-31G_dp-CH-Scan-d09-49-n800
 OpenBabel11261919373D

 20 19  0  0  0  0  0  0  0  0999 V2000
   -1.7495    0.2559   -0.1599 C   0  0  0  0  0  0  0  0  0  0  0  0
   -3.1256    0.1208   -0.3098 N   0  0  0  0  0  0  0  0  0  0  0  0
   -4.2354    0.0627   -0.4262 N   0  0  0  0  0  0  0  0  0  0  0  0
   -1.3202    1.5850   -0.0048 C   0  0  0  0  0  0  0  0  0  0  0  0
    0.0914    1.6268    0.1428 C   0  0  0  0  0  0  0  0  0  0  0  0
    0.9024    0.4953    0.1316 C   0  0  0  0  0  0  0  0  0  0  0  0
    0.3628   -0.8026   -0.0324 C   0  0  0  0  0  0  0  0  0  0  0  0
   -0.9981   -0.9499   -0.1841 C   0  0  0  0  0  0  0  0  0  0  0  0
   -2.8512    3.5512   -0.0028 H   0  0  0  0  0  0  0  0  0  0  0  0
    0.5763    2.5937    0.2740 H   0  0  0  0  0  0  0  0  0  0  0  0
    1.9793    0.5988    0.2524 H   0  0  0  0  0  0  0  0  0  0  0  0
    1.0122   -1.6718   -0.0383 H   0  0  0  0  0  0  0  0  0  0  0  0
   -1.4671   -1.9212   -0.3141 H   0  0  0  0  0  0  0  0  0  0  0  0
   -5.0751    2.7451   -0.3302 O   0  0  0  0  0  0  0  0  0  0  0  0
   -4.7048    3.8879   -0.1918 C   0  0  0  0  0  0  0  0  0  0  0  0
   -3.4681    4.3208   -0.0090 O   0  0  0  0  0  0  0  0  0  0  0  0
   -5.6870    5.0809   -0.2120 C   0  0  0  0  0  0  0  0  0  0  0  0
   -5.3795    5.9245   -1.2142 F   0  0  0  0  0  0  0  0  0  0  0  0
   -6.9405    4.6524   -0.3857 F   0  0  0  0  0  0  0  0  0  0  0  0
   -5.6238    5.7624    0.9464 F   0  0  0  0  0  0  0  0  0  0  0  0
  1  4  1  0  0  0  0
  2  1  1  0  0  0  0
  3  2  1  0  0  0  0
  4  5  2  0  0  0  0
  5 10  1  0  0  0  0
  6  5  1  0  0  0  0
  6 11  1  0  0  0  0
  7  6  2  0  0  0  0
  8  1  2  0  0  0  0
  8  7  1  0  0  0  0
 12  7  1  0  0  0  0
 13  8  1  0  0  0  0
 14 15  2  0  0  0  0
 15 16  1  0  0  0  0
 16  9  1  0  0  0  0
 17 15  1  0  0  0  0
 17 20  1  0  0  0  0
 18 17  1  0  0  0  0
 19 17  1  0  0  0  0
M  RAD  3   2   2   3   3   4   2
M  END
