Coordinates from ORCA-job PhN2+~CF3COO-_B3LYPG-6-31G_dp-CH-Scan-d09-49-n800
 OpenBabel11261919373D

 20 19  0  0  0  0  0  0  0  0999 V2000
   -1.9568    0.3373   -0.1989 C   0  0  0  0  0  0  0  0  0  0  0  0
   -3.3155    0.0972   -0.3784 N   0  0  0  0  0  0  0  0  0  0  0  0
   -4.4209    0.0224   -0.5122 N   0  0  0  0  0  0  0  0  0  0  0  0
   -1.6111    1.6900   -0.0557 C   0  0  0  0  0  0  0  0  0  0  0  0
   -0.2218    1.8577    0.1247 C   0  0  0  0  0  0  0  0  0  0  0  0
    0.6738    0.7899    0.1529 C   0  0  0  0  0  0  0  0  0  0  0  0
    0.2359   -0.5425   -0.0007 C   0  0  0  0  0  0  0  0  0  0  0  0
   -1.1085   -0.7956   -0.1824 C   0  0  0  0  0  0  0  0  0  0  0  0
   -2.5962    2.8940   -0.0799 H   0  0  0  0  0  0  0  0  0  0  0  0
    0.1695    2.8653    0.2489 H   0  0  0  0  0  0  0  0  0  0  0  0
    1.7351    0.9789    0.2971 H   0  0  0  0  0  0  0  0  0  0  0  0
    0.9465   -1.3617    0.0243 H   0  0  0  0  0  0  0  0  0  0  0  0
   -1.4979   -1.8015   -0.3057 H   0  0  0  0  0  0  0  0  0  0  0  0
   -5.0674    2.5318   -0.3019 O   0  0  0  0  0  0  0  0  0  0  0  0
   -4.4869    3.6038   -0.1879 C   0  0  0  0  0  0  0  0  0  0  0  0
   -3.2189    3.8361   -0.0767 O   0  0  0  0  0  0  0  0  0  0  0  0
   -5.3054    4.9194   -0.1645 C   0  0  0  0  0  0  0  0  0  0  0  0
   -4.9506    5.7172   -1.1931 F   0  0  0  0  0  0  0  0  0  0  0  0
   -6.6207    4.6811   -0.2581 F   0  0  0  0  0  0  0  0  0  0  0  0
   -5.0837    5.5982    0.9799 F   0  0  0  0  0  0  0  0  0  0  0  0
  1  8  2  0  0  0  0
  1  4  1  0  0  0  0
  2  1  1  0  0  0  0
  3  2  1  0  0  0  0
  4  5  2  0  0  0  0
  5  6  1  0  0  0  0
  5 10  1  0  0  0  0
  6 11  1  0  0  0  0
  7 12  1  0  0  0  0
  7  6  2  0  0  0  0
  8  7  1  0  0  0  0
  9 16  1  0  0  0  0
 13  8  1  0  0  0  0
 14 15  2  0  0  0  0
 15 17  1  0  0  0  0
 15 16  1  0  0  0  0
 17 20  1  0  0  0  0
 18 17  1  0  0  0  0
 19 17  1  0  0  0  0
M  RAD  3   2   2   3   3   4   2
M  END
