Coordinates from ORCA-job PhN2+~CF3COO-_B3LYPG-6-31G_dp-CH-Scan-d09-49-n800
 OpenBabel11261919373D

 20 19  0  0  0  0  0  0  0  0999 V2000
   -1.4731    0.1641   -0.1435 C   0  0  0  0  0  0  0  0  0  0  0  0
   -2.8594    0.2059   -0.2843 N   0  0  0  0  0  0  0  0  0  0  0  0
   -3.9688    0.2997   -0.3965 N   0  0  0  0  0  0  0  0  0  0  0  0
   -0.9038    1.4389    0.0056 C   0  0  0  0  0  0  0  0  0  0  0  0
    0.5079    1.3067    0.1447 C   0  0  0  0  0  0  0  0  0  0  0  0
    1.1800    0.0887    0.1306 C   0  0  0  0  0  0  0  0  0  0  0  0
    0.4913   -1.1398   -0.0286 C   0  0  0  0  0  0  0  0  0  0  0  0
   -0.8776   -1.1269   -0.1720 C   0  0  0  0  0  0  0  0  0  0  0  0
   -3.0835    4.4268    0.0216 H   0  0  0  0  0  0  0  0  0  0  0  0
    1.1087    2.2084    0.2715 H   0  0  0  0  0  0  0  0  0  0  0  0
    2.2628    0.0633    0.2450 H   0  0  0  0  0  0  0  0  0  0  0  0
    1.0365   -2.0783   -0.0371 H   0  0  0  0  0  0  0  0  0  0  0  0
   -1.4597   -2.0360   -0.2978 H   0  0  0  0  0  0  0  0  0  0  0  0
   -5.0036    3.0954   -0.3030 O   0  0  0  0  0  0  0  0  0  0  0  0
   -4.9462    4.2937   -0.1932 C   0  0  0  0  0  0  0  0  0  0  0  0
   -3.8476    5.0285   -0.0093 O   0  0  0  0  0  0  0  0  0  0  0  0
   -6.1881    5.2100   -0.2451 C   0  0  0  0  0  0  0  0  0  0  0  0
   -6.0614    6.1146   -1.2315 F   0  0  0  0  0  0  0  0  0  0  0  0
   -7.2879    4.4866   -0.4640 F   0  0  0  0  0  0  0  0  0  0  0  0
   -6.3278    5.8685    0.9188 F   0  0  0  0  0  0  0  0  0  0  0  0
  1  4  1  0  0  0  0
  2  1  1  0  0  0  0
  3  2  1  0  0  0  0
  4  5  2  0  0  0  0
  5 10  1  0  0  0  0
  6  5  1  0  0  0  0
  6 11  1  0  0  0  0
  7  6  2  0  0  0  0
  8  1  2  0  0  0  0
  8  7  1  0  0  0  0
 12  7  1  0  0  0  0
 13  8  1  0  0  0  0
 14 15  2  0  0  0  0
 15 16  1  0  0  0  0
 16  9  1  0  0  0  0
 17 15  1  0  0  0  0
 17 20  1  0  0  0  0
 18 17  1  0  0  0  0
 19 17  1  0  0  0  0
M  RAD  3   2   2   3   3   4   2
M  END
