Coordinates from ORCA-job PhN2+~CF3COO-_B3LYPG-6-31G_dp-CH-Scan-d09-49-n800
 OpenBabel11261919373D

 20 19  0  0  0  0  0  0  0  0999 V2000
   -1.2951    0.1341   -0.1759 C   0  0  0  0  0  0  0  0  0  0  0  0
   -2.6683    0.3058   -0.3530 N   0  0  0  0  0  0  0  0  0  0  0  0
   -3.7604    0.5104   -0.4896 N   0  0  0  0  0  0  0  0  0  0  0  0
   -0.6208    1.3553   -0.0231 C   0  0  0  0  0  0  0  0  0  0  0  0
    0.7702    1.0970    0.1557 C   0  0  0  0  0  0  0  0  0  0  0  0
    1.3293   -0.1765    0.1722 C   0  0  0  0  0  0  0  0  0  0  0  0
    0.5371   -1.3405    0.0050 C   0  0  0  0  0  0  0  0  0  0  0  0
   -0.8206   -1.2064   -0.1770 C   0  0  0  0  0  0  0  0  0  0  0  0
   -3.2712    5.0160   -0.0423 H   0  0  0  0  0  0  0  0  0  0  0  0
    1.4469    1.9423    0.2904 H   0  0  0  0  0  0  0  0  0  0  0  0
    2.4019   -0.2988    0.3176 H   0  0  0  0  0  0  0  0  0  0  0  0
    0.9959   -2.3240    0.0203 H   0  0  0  0  0  0  0  0  0  0  0  0
   -1.4790   -2.0606   -0.3116 H   0  0  0  0  0  0  0  0  0  0  0  0
   -4.9260    3.3664   -0.2998 O   0  0  0  0  0  0  0  0  0  0  0  0
   -5.0852    4.5552   -0.1987 C   0  0  0  0  0  0  0  0  0  0  0  0
   -4.1277    5.4771   -0.0535 O   0  0  0  0  0  0  0  0  0  0  0  0
   -6.4713    5.2351   -0.2213 C   0  0  0  0  0  0  0  0  0  0  0  0
   -6.5464    6.1052   -1.2433 F   0  0  0  0  0  0  0  0  0  0  0  0
   -7.4310    4.3193   -0.3647 F   0  0  0  0  0  0  0  0  0  0  0  0
   -6.6797    5.9064    0.9243 F   0  0  0  0  0  0  0  0  0  0  0  0
  1  4  1  0  0  0  0
  2  1  1  0  0  0  0
  3  2  1  0  0  0  0
  4  5  2  0  0  0  0
  5  6  1  0  0  0  0
  5 10  1  0  0  0  0
  6 11  1  0  0  0  0
  7 12  1  0  0  0  0
  7  6  2  0  0  0  0
  8  1  2  0  0  0  0
  8  7  1  0  0  0  0
 13  8  1  0  0  0  0
 14 15  2  0  0  0  0
 15 16  1  0  0  0  0
 16  9  1  0  0  0  0
 17 15  1  0  0  0  0
 17 20  1  0  0  0  0
 18 17  1  0  0  0  0
 19 17  1  0  0  0  0
M  RAD  3   2   2   3   3   4   2
M  END
