Coordinates from ORCA-job PhN2+~CF3COO-_B3LYPG-6-31G_dp-CH-Scan-d09-49-n800
 OpenBabel11261919373D

 20 19  0  0  0  0  0  0  0  0999 V2000
   -1.8169    0.2792   -0.1670 C   0  0  0  0  0  0  0  0  0  0  0  0
   -3.1873    0.1032   -0.3214 N   0  0  0  0  0  0  0  0  0  0  0  0
   -4.2944    0.0159   -0.4413 N   0  0  0  0  0  0  0  0  0  0  0  0
   -1.4203    1.6192   -0.0161 C   0  0  0  0  0  0  0  0  0  0  0  0
   -0.0122    1.7011    0.1363 C   0  0  0  0  0  0  0  0  0  0  0  0
    0.8292    0.5917    0.1330 C   0  0  0  0  0  0  0  0  0  0  0  0
    0.3249   -0.7199   -0.0269 C   0  0  0  0  0  0  0  0  0  0  0  0
   -1.0313   -0.9040   -0.1827 C   0  0  0  0  0  0  0  0  0  0  0  0
   -2.7911    3.3611   -0.0179 H   0  0  0  0  0  0  0  0  0  0  0  0
    0.4442    2.6818    0.2646 H   0  0  0  0  0  0  0  0  0  0  0  0
    1.9022    0.7253    0.2570 H   0  0  0  0  0  0  0  0  0  0  0  0
    0.9967   -1.5719   -0.0264 H   0  0  0  0  0  0  0  0  0  0  0  0
   -1.4735   -1.8880   -0.3098 H   0  0  0  0  0  0  0  0  0  0  0  0
   -5.0722    2.6755   -0.3370 O   0  0  0  0  0  0  0  0  0  0  0  0
   -4.6372    3.7971   -0.1930 C   0  0  0  0  0  0  0  0  0  0  0  0
   -3.3837    4.1642   -0.0166 O   0  0  0  0  0  0  0  0  0  0  0  0
   -5.5616    5.0362   -0.1994 C   0  0  0  0  0  0  0  0  0  0  0  0
   -5.2225    5.8706   -1.2000 F   0  0  0  0  0  0  0  0  0  0  0  0
   -6.8370    4.6717   -0.3651 F   0  0  0  0  0  0  0  0  0  0  0  0
   -5.4573    5.7091    0.9617 F   0  0  0  0  0  0  0  0  0  0  0  0
  1  4  1  0  0  0  0
  2  1  1  0  0  0  0
  3  2  1  0  0  0  0
  4  5  2  0  0  0  0
  5 10  1  0  0  0  0
  6  5  1  0  0  0  0
  6 11  1  0  0  0  0
  7 12  1  0  0  0  0
  7  6  2  0  0  0  0
  8  1  2  0  0  0  0
  8  7  1  0  0  0  0
  9 16  1  0  0  0  0
 13  8  1  0  0  0  0
 14 15  2  0  0  0  0
 15 16  1  0  0  0  0
 17 15  1  0  0  0  0
 17 20  1  0  0  0  0
 18 17  1  0  0  0  0
 19 17  1  0  0  0  0
M  RAD  3   2   2   3   3   4   2
M  END
