Coordinates from ORCA-job PhN2+~CF3COO-_B3LYPG-6-31G_dp-CH-Scan-d09-49-n800
 OpenBabel11261919373D

 20 19  0  0  0  0  0  0  0  0999 V2000
   -1.8376    0.2862   -0.1695 C   0  0  0  0  0  0  0  0  0  0  0  0
   -3.2061    0.0975   -0.3253 N   0  0  0  0  0  0  0  0  0  0  0  0
   -4.3123    0.0028   -0.4463 N   0  0  0  0  0  0  0  0  0  0  0  0
   -1.4511    1.6294   -0.0198 C   0  0  0  0  0  0  0  0  0  0  0  0
   -0.0445    1.7236    0.1342 C   0  0  0  0  0  0  0  0  0  0  0  0
    0.8063    0.6213    0.1337 C   0  0  0  0  0  0  0  0  0  0  0  0
    0.3130   -0.6944   -0.0250 C   0  0  0  0  0  0  0  0  0  0  0  0
   -1.0416   -0.8897   -0.1824 C   0  0  0  0  0  0  0  0  0  0  0  0
   -2.7714    3.3028   -0.0225 H   0  0  0  0  0  0  0  0  0  0  0  0
    0.4029    2.7085    0.2617 H   0  0  0  0  0  0  0  0  0  0  0  0
    1.8779    0.7642    0.2589 H   0  0  0  0  0  0  0  0  0  0  0  0
    0.9915   -1.5409   -0.0225 H   0  0  0  0  0  0  0  0  0  0  0  0
   -1.4755   -1.8774   -0.3087 H   0  0  0  0  0  0  0  0  0  0  0  0
   -5.0701    2.6550   -0.3390 O   0  0  0  0  0  0  0  0  0  0  0  0
   -4.6159    3.7696   -0.1934 C   0  0  0  0  0  0  0  0  0  0  0  0
   -3.3583    4.1170   -0.0193 O   0  0  0  0  0  0  0  0  0  0  0  0
   -5.5229    5.0217   -0.1954 C   0  0  0  0  0  0  0  0  0  0  0  0
   -5.1755    5.8529   -1.1961 F   0  0  0  0  0  0  0  0  0  0  0  0
   -6.8044    4.6766   -0.3575 F   0  0  0  0  0  0  0  0  0  0  0  0
   -5.4057    5.6923    0.9660 F   0  0  0  0  0  0  0  0  0  0  0  0
  1  4  1  0  0  0  0
  2  1  1  0  0  0  0
  3  2  1  0  0  0  0
  4  5  2  0  0  0  0
  5 10  1  0  0  0  0
  6  5  1  0  0  0  0
  6 11  1  0  0  0  0
  7 12  1  0  0  0  0
  7  6  2  0  0  0  0
  8  1  2  0  0  0  0
  8  7  1  0  0  0  0
  9 16  1  0  0  0  0
 13  8  1  0  0  0  0
 14 15  2  0  0  0  0
 15 16  1  0  0  0  0
 17 15  1  0  0  0  0
 17 20  1  0  0  0  0
 18 17  1  0  0  0  0
 19 17  1  0  0  0  0
M  RAD  3   2   2   3   3   4   2
M  END
