Coordinates from ORCA-job PhN2+~CF3COO-_B3LYPG-6-31G_dp-CH-Scan-d09-49-n800
 OpenBabel11261919373D

 20 19  0  0  0  0  0  0  0  0999 V2000
   -1.7073    0.2411   -0.1565 C   0  0  0  0  0  0  0  0  0  0  0  0
   -3.0862    0.1314   -0.3046 N   0  0  0  0  0  0  0  0  0  0  0  0
   -4.1974    0.0939   -0.4192 N   0  0  0  0  0  0  0  0  0  0  0  0
   -1.2578    1.5630    0.0017 C   0  0  0  0  0  0  0  0  0  0  0  0
    0.1554    1.5790    0.1475 C   0  0  0  0  0  0  0  0  0  0  0  0
    0.9469    0.4342    0.1318 C   0  0  0  0  0  0  0  0  0  0  0  0
    0.3855   -0.8544   -0.0355 C   0  0  0  0  0  0  0  0  0  0  0  0
   -0.9778   -0.9784   -0.1857 C   0  0  0  0  0  0  0  0  0  0  0  0
   -2.8858    3.6757    0.0067 H   0  0  0  0  0  0  0  0  0  0  0  0
    0.6578    2.5369    0.2809 H   0  0  0  0  0  0  0  0  0  0  0  0
    2.0257    0.5188    0.2514 H   0  0  0  0  0  0  0  0  0  0  0  0
    1.0205   -1.7342   -0.0450 H   0  0  0  0  0  0  0  0  0  0  0  0
   -1.4635   -1.9412   -0.3181 H   0  0  0  0  0  0  0  0  0  0  0  0
   -5.0717    2.7916   -0.3246 O   0  0  0  0  0  0  0  0  0  0  0  0
   -4.7449    3.9469   -0.1903 C   0  0  0  0  0  0  0  0  0  0  0  0
   -3.5219    4.4235   -0.0048 O   0  0  0  0  0  0  0  0  0  0  0  0
   -5.7655    5.1066   -0.2195 C   0  0  0  0  0  0  0  0  0  0  0  0
   -5.4841    5.9527   -1.2268 F   0  0  0  0  0  0  0  0  0  0  0  0
   -7.0033    4.6348   -0.3920 F   0  0  0  0  0  0  0  0  0  0  0  0
   -5.7262    5.7969    0.9345 F   0  0  0  0  0  0  0  0  0  0  0  0
  1  4  1  0  0  0  0
  2  1  1  0  0  0  0
  3  2  1  0  0  0  0
  4  5  2  0  0  0  0
  5 10  1  0  0  0  0
  6  5  1  0  0  0  0
  6 11  1  0  0  0  0
  7  6  2  0  0  0  0
  8  1  2  0  0  0  0
  8  7  1  0  0  0  0
 12  7  1  0  0  0  0
 13  8  1  0  0  0  0
 14 15  2  0  0  0  0
 15 16  1  0  0  0  0
 16  9  1  0  0  0  0
 17 15  1  0  0  0  0
 17 20  1  0  0  0  0
 18 17  1  0  0  0  0
 19 17  1  0  0  0  0
M  RAD  3   2   2   3   3   4   2
M  END
