Coordinates from ORCA-job PhN2+~CF3COO-_B3LYPG-6-31G_dp-CH-Scan-d09-49-n800
 OpenBabel11261919373D

 20 19  0  0  0  0  0  0  0  0999 V2000
   -2.0579    0.6162   -0.1764 C   0  0  0  0  0  0  0  0  0  0  0  0
   -3.4472    0.4168   -0.3388 N   0  0  0  0  0  0  0  0  0  0  0  0
   -4.3898   -0.1675   -0.4900 N   0  0  0  0  0  0  0  0  0  0  0  0
   -1.4783    1.8845   -0.2125 C   0  0  0  0  0  0  0  0  0  0  0  0
   -0.0844    1.9031   -0.0706 C   0  0  0  0  0  0  0  0  0  0  0  0
    0.6572    0.7350    0.1031 C   0  0  0  0  0  0  0  0  0  0  0  0
    0.0250   -0.5188    0.1346 C   0  0  0  0  0  0  0  0  0  0  0  0
   -1.3485   -0.5969   -0.0098 C   0  0  0  0  0  0  0  0  0  0  0  0
   -2.2030    3.0096   -0.3521 H   0  0  0  0  0  0  0  0  0  0  0  0
    0.4279    2.8608   -0.0917 H   0  0  0  0  0  0  0  0  0  0  0  0
    1.7365    0.7897    0.2184 H   0  0  0  0  0  0  0  0  0  0  0  0
    0.6034   -1.4265    0.2706 H   0  0  0  0  0  0  0  0  0  0  0  0
   -1.8705   -1.5483    0.0053 H   0  0  0  0  0  0  0  0  0  0  0  0
   -4.5041    2.4740   -0.0355 O   0  0  0  0  0  0  0  0  0  0  0  0
   -4.1861    3.6694   -0.2110 C   0  0  0  0  0  0  0  0  0  0  0  0
   -3.0420    4.1506   -0.4289 O   0  0  0  0  0  0  0  0  0  0  0  0
   -5.3557    4.6869   -0.1238 C   0  0  0  0  0  0  0  0  0  0  0  0
   -4.9977    5.9172   -0.5215 F   0  0  0  0  0  0  0  0  0  0  0  0
   -6.3922    4.2892   -0.8885 F   0  0  0  0  0  0  0  0  0  0  0  0
   -5.7941    4.7740    1.1508 F   0  0  0  0  0  0  0  0  0  0  0  0
  1  8  1  0  0  0  0
  2  1  1  0  0  0  0
  3  2  1  0  0  0  0
  4  1  2  0  0  0  0
  4  5  1  0  0  0  0
  5  6  2  0  0  0  0
  6  7  1  0  0  0  0
  6 11  1  0  0  0  0
  7 12  1  0  0  0  0
  8 13  1  0  0  0  0
  8  7  2  0  0  0  0
  9  4  1  0  0  0  0
 10  5  1  0  0  0  0
 15 17  1  0  0  0  0
 15 14  1  0  0  0  0
 16 15  2  0  0  0  0
 17 20  1  0  0  0  0
 18 17  1  0  0  0  0
 19 17  1  0  0  0  0
M  RAD  3   2   2   3   3  14   2
M  END
