Coordinates from ORCA-job PhN2+~CF3COO-_B3LYPG-6-31G_dp-CH-Scan-d09-49-n800
 OpenBabel11261919373D

 20 19  0  0  0  0  0  0  0  0999 V2000
   -1.3786    0.1446   -0.1339 C   0  0  0  0  0  0  0  0  0  0  0  0
   -2.7624    0.2576   -0.2670 N   0  0  0  0  0  0  0  0  0  0  0  0
   -3.8664    0.4124   -0.3669 N   0  0  0  0  0  0  0  0  0  0  0  0
   -0.7522    1.3897    0.0325 C   0  0  0  0  0  0  0  0  0  0  0  0
    0.6530    1.1880    0.1640 C   0  0  0  0  0  0  0  0  0  0  0  0
    1.2669   -0.0597    0.1288 C   0  0  0  0  0  0  0  0  0  0  0  0
    0.5209   -1.2524   -0.0468 C   0  0  0  0  0  0  0  0  0  0  0  0
   -0.8463   -1.1731   -0.1848 C   0  0  0  0  0  0  0  0  0  0  0  0
   -3.1829    4.7706    0.0545 H   0  0  0  0  0  0  0  0  0  0  0  0
    1.2965    2.0583    0.3023 H   0  0  0  0  0  0  0  0  0  0  0  0
    2.3478   -0.1382    0.2389 H   0  0  0  0  0  0  0  0  0  0  0  0
    1.0217   -2.2149   -0.0721 H   0  0  0  0  0  0  0  0  0  0  0  0
   -1.4711   -2.0516   -0.3228 H   0  0  0  0  0  0  0  0  0  0  0  0
   -4.9449    3.2448   -0.2754 O   0  0  0  0  0  0  0  0  0  0  0  0
   -5.0179    4.4429   -0.1817 C   0  0  0  0  0  0  0  0  0  0  0  0
   -4.0030    5.2916    0.0052 O   0  0  0  0  0  0  0  0  0  0  0  0
   -6.3477    5.2231   -0.2666 C   0  0  0  0  0  0  0  0  0  0  0  0
   -6.3164    6.0848   -1.2981 F   0  0  0  0  0  0  0  0  0  0  0  0
   -7.3663    4.3793   -0.4419 F   0  0  0  0  0  0  0  0  0  0  0  0
   -6.5523    5.9210    0.8637 F   0  0  0  0  0  0  0  0  0  0  0  0
  1  4  1  0  0  0  0
  2  1  1  0  0  0  0
  3  2  1  0  0  0  0
  4  5  2  0  0  0  0
  5 10  1  0  0  0  0
  6  5  1  0  0  0  0
  6 11  1  0  0  0  0
  7  6  2  0  0  0  0
  8  1  2  0  0  0  0
  8  7  1  0  0  0  0
 12  7  1  0  0  0  0
 13  8  1  0  0  0  0
 14 15  2  0  0  0  0
 15 16  1  0  0  0  0
 16  9  1  0  0  0  0
 17 15  1  0  0  0  0
 17 20  1  0  0  0  0
 18 17  1  0  0  0  0
 19 17  1  0  0  0  0
M  RAD  3   2   2   3   3   4   2
M  END
