Coordinates from ORCA-job PhN2+~CF3COO-_B3LYPG-6-31G_dp-CH-Scan-d09-49-n800
 OpenBabel11261919373D

 20 19  0  0  0  0  0  0  0  0999 V2000
   -1.5573    0.1920   -0.1511 C   0  0  0  0  0  0  0  0  0  0  0  0
   -2.9424    0.1786   -0.2976 N   0  0  0  0  0  0  0  0  0  0  0  0
   -4.0538    0.2225   -0.4159 N   0  0  0  0  0  0  0  0  0  0  0  0
   -1.0310    1.4856   -0.0009 C   0  0  0  0  0  0  0  0  0  0  0  0
    0.3828    1.4060    0.1441 C   0  0  0  0  0  0  0  0  0  0  0  0
    1.0983    0.2127    0.1341 C   0  0  0  0  0  0  0  0  0  0  0  0
    0.4548   -1.0393   -0.0262 C   0  0  0  0  0  0  0  0  0  0  0  0
   -0.9133   -1.0755   -0.1751 C   0  0  0  0  0  0  0  0  0  0  0  0
   -3.0034    4.1537    0.0057 H   0  0  0  0  0  0  0  0  0  0  0  0
    0.9494    2.3291    0.2722 H   0  0  0  0  0  0  0  0  0  0  0  0
    2.1807    0.2267    0.2531 H   0  0  0  0  0  0  0  0  0  0  0  0
    1.0327   -1.9579   -0.0313 H   0  0  0  0  0  0  0  0  0  0  0  0
   -1.4615   -2.0052   -0.3021 H   0  0  0  0  0  0  0  0  0  0  0  0
   -5.0289    2.9778   -0.3127 O   0  0  0  0  0  0  0  0  0  0  0  0
   -4.8735    4.1674   -0.1948 C   0  0  0  0  0  0  0  0  0  0  0  0
   -3.7215    4.8119   -0.0158 O   0  0  0  0  0  0  0  0  0  0  0  0
   -6.0415    5.1771   -0.2314 C   0  0  0  0  0  0  0  0  0  0  0  0
   -5.8593    6.0692   -1.2208 F   0  0  0  0  0  0  0  0  0  0  0  0
   -7.1972    4.5409   -0.4348 F   0  0  0  0  0  0  0  0  0  0  0  0
   -6.1156    5.8456    0.9331 F   0  0  0  0  0  0  0  0  0  0  0  0
  1  4  1  0  0  0  0
  2  1  1  0  0  0  0
  3  2  1  0  0  0  0
  4  5  2  0  0  0  0
  5 10  1  0  0  0  0
  6  5  1  0  0  0  0
  6 11  1  0  0  0  0
  7  6  2  0  0  0  0
  8  1  2  0  0  0  0
  8  7  1  0  0  0  0
 12  7  1  0  0  0  0
 13  8  1  0  0  0  0
 14 15  2  0  0  0  0
 15 16  1  0  0  0  0
 16  9  1  0  0  0  0
 17 15  1  0  0  0  0
 17 20  1  0  0  0  0
 18 17  1  0  0  0  0
 19 17  1  0  0  0  0
M  RAD  3   2   2   3   3   4   2
M  END
