Coordinates from ORCA-job PhN2+~CF3COO-_B3LYPG-6-31G_dp-CH-Scan-d09-49-n800
 OpenBabel11261919373D

 20 19  0  0  0  0  0  0  0  0999 V2000
   -1.4827    0.1669   -0.1458 C   0  0  0  0  0  0  0  0  0  0  0  0
   -2.8688    0.2020   -0.2891 N   0  0  0  0  0  0  0  0  0  0  0  0
   -3.9790    0.2898   -0.3979 N   0  0  0  0  0  0  0  0  0  0  0  0
   -0.9190    1.4442    0.0039 C   0  0  0  0  0  0  0  0  0  0  0  0
    0.4930    1.3183    0.1450 C   0  0  0  0  0  0  0  0  0  0  0  0
    1.1704    0.1032    0.1325 C   0  0  0  0  0  0  0  0  0  0  0  0
    0.4875   -1.1283   -0.0274 C   0  0  0  0  0  0  0  0  0  0  0  0
   -0.8814   -1.1214   -0.1729 C   0  0  0  0  0  0  0  0  0  0  0  0
   -3.0733    4.3949    0.0157 H   0  0  0  0  0  0  0  0  0  0  0  0
    1.0897    2.2227    0.2723 H   0  0  0  0  0  0  0  0  0  0  0  0
    2.2532    0.0826    0.2486 H   0  0  0  0  0  0  0  0  0  0  0  0
    1.0366   -2.0644   -0.0348 H   0  0  0  0  0  0  0  0  0  0  0  0
   -1.4592   -2.0330   -0.2995 H   0  0  0  0  0  0  0  0  0  0  0  0
   -5.0070    3.0814   -0.3041 O   0  0  0  0  0  0  0  0  0  0  0  0
   -4.9379    4.2791   -0.1944 C   0  0  0  0  0  0  0  0  0  0  0  0
   -3.8321    5.0035   -0.0141 O   0  0  0  0  0  0  0  0  0  0  0  0
   -6.1715    5.2068   -0.2422 C   0  0  0  0  0  0  0  0  0  0  0  0
   -6.0396    6.1108   -1.2284 F   0  0  0  0  0  0  0  0  0  0  0  0
   -7.2787    4.4938   -0.4580 F   0  0  0  0  0  0  0  0  0  0  0  0
   -6.3016    5.8660    0.9226 F   0  0  0  0  0  0  0  0  0  0  0  0
  1  4  1  0  0  0  0
  2  1  1  0  0  0  0
  3  2  1  0  0  0  0
  4  5  2  0  0  0  0
  5 10  1  0  0  0  0
  6  5  1  0  0  0  0
  6 11  1  0  0  0  0
  7  6  2  0  0  0  0
  8  1  2  0  0  0  0
  8  7  1  0  0  0  0
 12  7  1  0  0  0  0
 13  8  1  0  0  0  0
 14 15  2  0  0  0  0
 15 16  1  0  0  0  0
 16  9  1  0  0  0  0
 17 15  1  0  0  0  0
 17 20  1  0  0  0  0
 18 17  1  0  0  0  0
 19 17  1  0  0  0  0
M  RAD  3   2   2   3   3   4   2
M  END
