Coordinates from ORCA-job PhN2+~CF3COO-_B3LYPG-6-31G_dp-CH-Scan-d09-49-n800
 OpenBabel11261919373D

 20 19  0  0  0  0  0  0  0  0999 V2000
   -1.2834    0.1333   -0.1843 C   0  0  0  0  0  0  0  0  0  0  0  0
   -2.6546    0.3122   -0.3702 N   0  0  0  0  0  0  0  0  0  0  0  0
   -3.7446    0.5224   -0.5150 N   0  0  0  0  0  0  0  0  0  0  0  0
   -0.6024    1.3511   -0.0348 C   0  0  0  0  0  0  0  0  0  0  0  0
    0.7859    1.0853    0.1533 C   0  0  0  0  0  0  0  0  0  0  0  0
    1.3370   -0.1915    0.1806 C   0  0  0  0  0  0  0  0  0  0  0  0
    0.5385   -1.3515    0.0157 C   0  0  0  0  0  0  0  0  0  0  0  0
   -0.8173   -1.2102   -0.1748 C   0  0  0  0  0  0  0  0  0  0  0  0
   -3.2837    5.0451   -0.0621 H   0  0  0  0  0  0  0  0  0  0  0  0
    1.4670    1.9273    0.2868 H   0  0  0  0  0  0  0  0  0  0  0  0
    2.4080   -0.3194    0.3329 H   0  0  0  0  0  0  0  0  0  0  0  0
    0.9911   -2.3377    0.0395 H   0  0  0  0  0  0  0  0  0  0  0  0
   -1.4801   -2.0610   -0.3083 H   0  0  0  0  0  0  0  0  0  0  0  0
   -4.9272    3.3816   -0.3065 O   0  0  0  0  0  0  0  0  0  0  0  0
   -5.0951    4.5689   -0.2027 C   0  0  0  0  0  0  0  0  0  0  0  0
   -4.1442    5.4987   -0.0652 O   0  0  0  0  0  0  0  0  0  0  0  0
   -6.4870    5.2372   -0.2116 C   0  0  0  0  0  0  0  0  0  0  0  0
   -6.5775    6.1113   -1.2289 F   0  0  0  0  0  0  0  0  0  0  0  0
   -7.4402    4.3141   -0.3515 F   0  0  0  0  0  0  0  0  0  0  0  0
   -6.6919    5.9017    0.9387 F   0  0  0  0  0  0  0  0  0  0  0  0
  1  8  2  0  0  0  0
  1  4  1  0  0  0  0
  2  1  1  0  0  0  0
  3  2  1  0  0  0  0
  4  5  2  0  0  0  0
  5  6  1  0  0  0  0
  5 10  1  0  0  0  0
  6 11  1  0  0  0  0
  7 12  1  0  0  0  0
  7  6  2  0  0  0  0
  8  7  1  0  0  0  0
 13  8  1  0  0  0  0
 14 15  2  0  0  0  0
 15 16  1  0  0  0  0
 16  9  1  0  0  0  0
 17 15  1  0  0  0  0
 17 20  1  0  0  0  0
 18 17  1  0  0  0  0
 19 17  1  0  0  0  0
M  RAD  3   2   2   3   3   4   2
M  END
