Coordinates from ORCA-job PhN2+~CF3COO-_B3LYPG-6-31G_dp-CH-Scan-d09-49-n800
 OpenBabel11261919373D

 20 19  0  0  0  0  0  0  0  0999 V2000
   -1.8059    0.2754   -0.1657 C   0  0  0  0  0  0  0  0  0  0  0  0
   -3.1773    0.1061   -0.3193 N   0  0  0  0  0  0  0  0  0  0  0  0
   -4.2849    0.0232   -0.4386 N   0  0  0  0  0  0  0  0  0  0  0  0
   -1.4039    1.6137   -0.0142 C   0  0  0  0  0  0  0  0  0  0  0  0
    0.0049    1.6890    0.1373 C   0  0  0  0  0  0  0  0  0  0  0  0
    0.8413    0.5760    0.1327 C   0  0  0  0  0  0  0  0  0  0  0  0
    0.3312   -0.7335   -0.0279 C   0  0  0  0  0  0  0  0  0  0  0  0
   -1.0259   -0.9115   -0.1829 C   0  0  0  0  0  0  0  0  0  0  0  0
   -2.8013    3.3921   -0.0153 H   0  0  0  0  0  0  0  0  0  0  0  0
    0.4660    2.6675    0.2661 H   0  0  0  0  0  0  0  0  0  0  0  0
    1.9150    0.7046    0.2560 H   0  0  0  0  0  0  0  0  0  0  0  0
    0.9993   -1.5884   -0.0285 H   0  0  0  0  0  0  0  0  0  0  0  0
   -1.4725   -1.8935   -0.3104 H   0  0  0  0  0  0  0  0  0  0  0  0
   -5.0729    2.6865   -0.3360 O   0  0  0  0  0  0  0  0  0  0  0  0
   -4.6484    3.8117   -0.1928 C   0  0  0  0  0  0  0  0  0  0  0  0
   -3.3973    4.1896   -0.0153 O   0  0  0  0  0  0  0  0  0  0  0  0
   -5.5821    5.0437   -0.2015 C   0  0  0  0  0  0  0  0  0  0  0  0
   -5.2477    5.8799   -1.2020 F   0  0  0  0  0  0  0  0  0  0  0  0
   -6.8541    4.6688   -0.3692 F   0  0  0  0  0  0  0  0  0  0  0  0
   -5.4849    5.7178    0.9594 F   0  0  0  0  0  0  0  0  0  0  0  0
  1  4  1  0  0  0  0
  2  1  1  0  0  0  0
  3  2  1  0  0  0  0
  4  5  2  0  0  0  0
  5 10  1  0  0  0  0
  6  5  1  0  0  0  0
  6 11  1  0  0  0  0
  7  6  2  0  0  0  0
  8  1  2  0  0  0  0
  8  7  1  0  0  0  0
  9 16  1  0  0  0  0
 12  7  1  0  0  0  0
 13  8  1  0  0  0  0
 14 15  2  0  0  0  0
 15 16  1  0  0  0  0
 17 15  1  0  0  0  0
 17 20  1  0  0  0  0
 18 17  1  0  0  0  0
 19 17  1  0  0  0  0
M  RAD  3   2   2   3   3   4   2
M  END
