Coordinates from ORCA-job PhN2+~CF3COO-_B3LYPG-6-31G_dp-CH-Scan-d09-49-n800
 OpenBabel11261919373D

 20 19  0  0  0  0  0  0  0  0999 V2000
   -1.3046    0.7200   -1.2203 C   0  0  0  0  0  0  0  0  0  0  0  0
   -2.1784    0.8459   -2.2996 N   0  0  0  0  0  0  0  0  0  0  0  0
   -2.8105    0.9642   -3.2152 N   0  0  0  0  0  0  0  0  0  0  0  0
    0.0225    0.9748   -1.5966 C   0  0  0  0  0  0  0  0  0  0  0  0
    0.8649    0.8200   -0.4563 C   0  0  0  0  0  0  0  0  0  0  0  0
    0.4038    0.4615    0.8065 C   0  0  0  0  0  0  0  0  0  0  0  0
   -0.9721    0.2295    1.0603 C   0  0  0  0  0  0  0  0  0  0  0  0
   -1.8763    0.3590    0.0300 C   0  0  0  0  0  0  0  0  0  0  0  0
   -2.8715    4.7390   -0.6583 H   0  0  0  0  0  0  0  0  0  0  0  0
    1.9372    0.9883   -0.5698 H   0  0  0  0  0  0  0  0  0  0  0  0
    1.1061    0.3533    1.6321 H   0  0  0  0  0  0  0  0  0  0  0  0
   -1.3074   -0.0469    2.0549 H   0  0  0  0  0  0  0  0  0  0  0  0
   -2.9438    0.2062    0.1603 H   0  0  0  0  0  0  0  0  0  0  0  0
   -4.0543    2.7156   -0.8668 O   0  0  0  0  0  0  0  0  0  0  0  0
   -4.3568    3.6789   -0.2083 C   0  0  0  0  0  0  0  0  0  0  0  0
   -3.6707    4.8198   -0.1096 O   0  0  0  0  0  0  0  0  0  0  0  0
   -5.6361    3.7527    0.6537 C   0  0  0  0  0  0  0  0  0  0  0  0
   -6.4370    4.7342    0.2070 F   0  0  0  0  0  0  0  0  0  0  0  0
   -6.2958    2.5947    0.5938 F   0  0  0  0  0  0  0  0  0  0  0  0
   -5.3206    4.0079    1.9340 F   0  0  0  0  0  0  0  0  0  0  0  0
  1  8  1  0  0  0  0
  2  1  1  0  0  0  0
  3  2  1  0  0  0  0
  4  1  2  0  0  0  0
  4  5  1  0  0  0  0
  5  6  2  0  0  0  0
  6  7  1  0  0  0  0
  6 11  1  0  0  0  0
  7 12  1  0  0  0  0
  8 13  1  0  0  0  0
  8  7  2  0  0  0  0
  9 16  1  0  0  0  0
 10  5  1  0  0  0  0
 14 15  2  0  0  0  0
 15 16  1  0  0  0  0
 15 17  1  0  0  0  0
 17 20  1  0  0  0  0
 18 17  1  0  0  0  0
 19 17  1  0  0  0  0
M  RAD  3   2   2   3   3   4   2
M  END
