Coordinates from ORCA-job PhN2+~CF3COO-_B3LYPG-6-31G_dp-CH-Scan-d09-49-n800
 OpenBabel11261919373D

 20 19  0  0  0  0  0  0  0  0999 V2000
   -1.5976    0.2061   -0.1547 C   0  0  0  0  0  0  0  0  0  0  0  0
   -2.9814    0.1668   -0.3043 N   0  0  0  0  0  0  0  0  0  0  0  0
   -4.0935    0.1878   -0.4202 N   0  0  0  0  0  0  0  0  0  0  0  0
   -1.0919    1.5075   -0.0003 C   0  0  0  0  0  0  0  0  0  0  0  0
    0.3221    1.4532    0.1474 C   0  0  0  0  0  0  0  0  0  0  0  0
    1.0582    0.2722    0.1364 C   0  0  0  0  0  0  0  0  0  0  0  0
    0.4366   -0.9899   -0.0282 C   0  0  0  0  0  0  0  0  0  0  0  0
   -0.9305   -1.0493   -0.1801 C   0  0  0  0  0  0  0  0  0  0  0  0
   -2.9693    4.0217    0.0021 H   0  0  0  0  0  0  0  0  0  0  0  0
    0.8718    2.3858    0.2787 H   0  0  0  0  0  0  0  0  0  0  0  0
    2.1398    0.3049    0.2576 H   0  0  0  0  0  0  0  0  0  0  0  0
    1.0299   -1.8985   -0.0342 H   0  0  0  0  0  0  0  0  0  0  0  0
   -1.4620   -1.9881   -0.3105 H   0  0  0  0  0  0  0  0  0  0  0  0
   -5.0421    2.9240   -0.3155 O   0  0  0  0  0  0  0  0  0  0  0  0
   -4.8391    4.1066   -0.1937 C   0  0  0  0  0  0  0  0  0  0  0  0
   -3.6645    4.7058   -0.0156 O   0  0  0  0  0  0  0  0  0  0  0  0
   -5.9687    5.1596   -0.2265 C   0  0  0  0  0  0  0  0  0  0  0  0
   -5.7644    6.0342   -1.2274 F   0  0  0  0  0  0  0  0  0  0  0  0
   -7.1503    4.5660   -0.4106 F   0  0  0  0  0  0  0  0  0  0  0  0
   -6.0047    5.8426    0.9313 F   0  0  0  0  0  0  0  0  0  0  0  0
  1  4  1  0  0  0  0
  2  1  1  0  0  0  0
  3  2  1  0  0  0  0
  4  5  2  0  0  0  0
  5 10  1  0  0  0  0
  6  5  1  0  0  0  0
  6 11  1  0  0  0  0
  7  6  2  0  0  0  0
  8  1  2  0  0  0  0
  8  7  1  0  0  0  0
 12  7  1  0  0  0  0
 13  8  1  0  0  0  0
 14 15  2  0  0  0  0
 15 16  1  0  0  0  0
 16  9  1  0  0  0  0
 17 15  1  0  0  0  0
 17 20  1  0  0  0  0
 18 17  1  0  0  0  0
 19 17  1  0  0  0  0
M  RAD  3   2   2   3   3   4   2
M  END
