Coordinates from ORCA-job PhN2+~CF3COO-_B3LYPG-6-31G_dp-CH-Scan-d09-49-n800
 OpenBabel11261919373D

 20 19  0  0  0  0  0  0  0  0999 V2000
   -1.2649    0.1332   -0.2050 C   0  0  0  0  0  0  0  0  0  0  0  0
   -2.6313    0.3247   -0.4126 N   0  0  0  0  0  0  0  0  0  0  0  0
   -3.7162    0.5465   -0.5771 N   0  0  0  0  0  0  0  0  0  0  0  0
   -0.5734    1.3457   -0.0625 C   0  0  0  0  0  0  0  0  0  0  0  0
    0.8093    1.0684    0.1487 C   0  0  0  0  0  0  0  0  0  0  0  0
    1.3465   -0.2136    0.2014 C   0  0  0  0  0  0  0  0  0  0  0  0
    0.5382   -1.3674    0.0410 C   0  0  0  0  0  0  0  0  0  0  0  0
   -0.8132   -1.2148   -0.1708 C   0  0  0  0  0  0  0  0  0  0  0  0
   -3.3020    5.0856   -0.1120 H   0  0  0  0  0  0  0  0  0  0  0  0
    1.4973    1.9051    0.2802 H   0  0  0  0  0  0  0  0  0  0  0  0
    2.4137   -0.3505    0.3707 H   0  0  0  0  0  0  0  0  0  0  0  0
    0.9800   -2.3578    0.0848 H   0  0  0  0  0  0  0  0  0  0  0  0
   -1.4830   -2.0605   -0.3023 H   0  0  0  0  0  0  0  0  0  0  0  0
   -4.9295    3.4030   -0.3239 O   0  0  0  0  0  0  0  0  0  0  0  0
   -5.1100    4.5878   -0.2129 C   0  0  0  0  0  0  0  0  0  0  0  0
   -4.1677    5.5290   -0.0944 O   0  0  0  0  0  0  0  0  0  0  0  0
   -6.5099    5.2387   -0.1868 C   0  0  0  0  0  0  0  0  0  0  0  0
   -6.6319    6.1230   -1.1919 F   0  0  0  0  0  0  0  0  0  0  0  0
   -7.4543    4.3054   -0.3179 F   0  0  0  0  0  0  0  0  0  0  0  0
   -6.6993    5.8876    0.9750 F   0  0  0  0  0  0  0  0  0  0  0  0
  1  8  2  0  0  0  0
  1  4  1  0  0  0  0
  2  1  1  0  0  0  0
  3  2  1  0  0  0  0
  4  5  2  0  0  0  0
  5  6  1  0  0  0  0
  5 10  1  0  0  0  0
  6 11  1  0  0  0  0
  7 12  1  0  0  0  0
  7  6  2  0  0  0  0
  8  7  1  0  0  0  0
  9 16  1  0  0  0  0
 13  8  1  0  0  0  0
 14 15  2  0  0  0  0
 15 17  1  0  0  0  0
 15 16  1  0  0  0  0
 17 20  1  0  0  0  0
 18 17  1  0  0  0  0
 19 17  1  0  0  0  0
M  RAD  3   2   2   3   3   4   2
M  END
