Coordinates from ORCA-job PhN2+~CF3COO-_B3LYPG-6-31G_dp-CH-Scan-d09-49-n800
 OpenBabel11261919373D

 20 19  0  0  0  0  0  0  0  0999 V2000
   -1.6586    0.2248   -0.1536 C   0  0  0  0  0  0  0  0  0  0  0  0
   -3.0402    0.1459   -0.3003 N   0  0  0  0  0  0  0  0  0  0  0  0
   -4.1524    0.1336   -0.4137 N   0  0  0  0  0  0  0  0  0  0  0  0
   -1.1849    1.5379    0.0066 C   0  0  0  0  0  0  0  0  0  0  0  0
    0.2293    1.5234    0.1510 C   0  0  0  0  0  0  0  0  0  0  0  0
    0.9974    0.3629    0.1323 C   0  0  0  0  0  0  0  0  0  0  0  0
    0.4100   -0.9143   -0.0372 C   0  0  0  0  0  0  0  0  0  0  0  0
   -0.9555   -1.0103   -0.1863 C   0  0  0  0  0  0  0  0  0  0  0  0
   -2.9245    3.8236    0.0151 H   0  0  0  0  0  0  0  0  0  0  0  0
    0.7523    2.4704    0.2858 H   0  0  0  0  0  0  0  0  0  0  0  0
    2.0779    0.4250    0.2512 H   0  0  0  0  0  0  0  0  0  0  0  0
    1.0274   -1.8065   -0.0491 H   0  0  0  0  0  0  0  0  0  0  0  0
   -1.4611   -1.9627   -0.3202 H   0  0  0  0  0  0  0  0  0  0  0  0
   -5.0635    2.8480   -0.3191 O   0  0  0  0  0  0  0  0  0  0  0  0
   -4.7889    4.0163   -0.1893 C   0  0  0  0  0  0  0  0  0  0  0  0
   -3.5852    4.5449   -0.0015 O   0  0  0  0  0  0  0  0  0  0  0  0
   -5.8558    5.1331   -0.2266 C   0  0  0  0  0  0  0  0  0  0  0  0
   -5.6062    5.9843   -1.2377 F   0  0  0  0  0  0  0  0  0  0  0  0
   -7.0719    4.6089   -0.3995 F   0  0  0  0  0  0  0  0  0  0  0  0
   -5.8471    5.8297    0.9239 F   0  0  0  0  0  0  0  0  0  0  0  0
  1  4  1  0  0  0  0
  2  1  1  0  0  0  0
  3  2  1  0  0  0  0
  4  5  2  0  0  0  0
  5 10  1  0  0  0  0
  6  5  1  0  0  0  0
  6 11  1  0  0  0  0
  7  6  2  0  0  0  0
  8  1  2  0  0  0  0
  8  7  1  0  0  0  0
 12  7  1  0  0  0  0
 13  8  1  0  0  0  0
 14 15  2  0  0  0  0
 15 16  1  0  0  0  0
 16  9  1  0  0  0  0
 17 15  1  0  0  0  0
 17 20  1  0  0  0  0
 18 17  1  0  0  0  0
 19 17  1  0  0  0  0
M  RAD  3   2   2   3   3   4   2
M  END
