Coordinates from ORCA-job PhN2+~CF3COO-_B3LYPG-6-31G_dp-CH-Scan-d09-49-n800
 OpenBabel11261919373D

 20 19  0  0  0  0  0  0  0  0999 V2000
   -1.8615    0.2947   -0.1737 C   0  0  0  0  0  0  0  0  0  0  0  0
   -3.2275    0.0916   -0.3327 N   0  0  0  0  0  0  0  0  0  0  0  0
   -4.3325   -0.0119   -0.4560 N   0  0  0  0  0  0  0  0  0  0  0  0
   -1.4865    1.6414   -0.0255 C   0  0  0  0  0  0  0  0  0  0  0  0
   -0.0819    1.7498    0.1320 C   0  0  0  0  0  0  0  0  0  0  0  0
    0.7794    0.6555    0.1358 C   0  0  0  0  0  0  0  0  0  0  0  0
    0.2988   -0.6645   -0.0217 C   0  0  0  0  0  0  0  0  0  0  0  0
   -1.0537   -0.8727   -0.1821 C   0  0  0  0  0  0  0  0  0  0  0  0
   -2.7474    3.2342   -0.0307 H   0  0  0  0  0  0  0  0  0  0  0  0
    0.3549    2.7394    0.2587 H   0  0  0  0  0  0  0  0  0  0  0  0
    1.8491    0.8090    0.2635 H   0  0  0  0  0  0  0  0  0  0  0  0
    0.9849   -1.5049   -0.0158 H   0  0  0  0  0  0  0  0  0  0  0  0
   -1.4780   -1.8646   -0.3077 H   0  0  0  0  0  0  0  0  0  0  0  0
   -5.0682    2.6313   -0.3376 O   0  0  0  0  0  0  0  0  0  0  0  0
   -4.5911    3.7378   -0.1930 C   0  0  0  0  0  0  0  0  0  0  0  0
   -3.3290    4.0623   -0.0253 O   0  0  0  0  0  0  0  0  0  0  0  0
   -5.4780    5.0045   -0.1899 C   0  0  0  0  0  0  0  0  0  0  0  0
   -5.1241    5.8300   -1.1935 F   0  0  0  0  0  0  0  0  0  0  0  0
   -6.7667    4.6816   -0.3432 F   0  0  0  0  0  0  0  0  0  0  0  0
   -5.3424    5.6745    0.9703 F   0  0  0  0  0  0  0  0  0  0  0  0
  1  4  1  0  0  0  0
  2  1  1  0  0  0  0
  3  2  1  0  0  0  0
  4  5  2  0  0  0  0
  5  6  1  0  0  0  0
  5 10  1  0  0  0  0
  6 11  1  0  0  0  0
  7 12  1  0  0  0  0
  7  6  2  0  0  0  0
  8  1  2  0  0  0  0
  8  7  1  0  0  0  0
  9 16  1  0  0  0  0
 13  8  1  0  0  0  0
 14 15  2  0  0  0  0
 15 17  1  0  0  0  0
 15 16  1  0  0  0  0
 17 20  1  0  0  0  0
 18 17  1  0  0  0  0
 19 17  1  0  0  0  0
M  RAD  3   2   2   3   3   4   2
M  END
