Coordinates from ORCA-job PhN2+~CF3COO-_B3LYPG-6-31G_dp-CH-Scan-d09-49-n800
 OpenBabel11261919373D

 20 19  0  0  0  0  0  0  0  0999 V2000
   -1.9107    0.3137   -0.1847 C   0  0  0  0  0  0  0  0  0  0  0  0
   -3.2715    0.0840   -0.3524 N   0  0  0  0  0  0  0  0  0  0  0  0
   -4.3743   -0.0303   -0.4819 N   0  0  0  0  0  0  0  0  0  0  0  0
   -1.5568    1.6662   -0.0400 C   0  0  0  0  0  0  0  0  0  0  0  0
   -0.1577    1.8040    0.1270 C   0  0  0  0  0  0  0  0  0  0  0  0
    0.7237    0.7254    0.1423 C   0  0  0  0  0  0  0  0  0  0  0  0
    0.2679   -0.6028   -0.0124 C   0  0  0  0  0  0  0  0  0  0  0  0
   -1.0801   -0.8362   -0.1816 C   0  0  0  0  0  0  0  0  0  0  0  0
   -2.6894    3.0858   -0.0526 H   0  0  0  0  0  0  0  0  0  0  0  0
    0.2567    2.8030    0.2520 H   0  0  0  0  0  0  0  0  0  0  0  0
    1.7892    0.8993    0.2770 H   0  0  0  0  0  0  0  0  0  0  0  0
    0.9685   -1.4309    0.0024 H   0  0  0  0  0  0  0  0  0  0  0  0
   -1.4850   -1.8362   -0.3054 H   0  0  0  0  0  0  0  0  0  0  0  0
   -5.0626    2.5828   -0.3283 O   0  0  0  0  0  0  0  0  0  0  0  0
   -4.5380    3.6723   -0.1912 C   0  0  0  0  0  0  0  0  0  0  0  0
   -3.2693    3.9507   -0.0440 O   0  0  0  0  0  0  0  0  0  0  0  0
   -5.3867    4.9660   -0.1769 C   0  0  0  0  0  0  0  0  0  0  0  0
   -5.0260    5.7787   -1.1897 F   0  0  0  0  0  0  0  0  0  0  0  0
   -6.6891    4.6868   -0.3059 F   0  0  0  0  0  0  0  0  0  0  0  0
   -5.2102    5.6369    0.9781 F   0  0  0  0  0  0  0  0  0  0  0  0
  1  8  2  0  0  0  0
  1  4  1  0  0  0  0
  2  1  1  0  0  0  0
  3  2  1  0  0  0  0
  4  5  2  0  0  0  0
  5  6  1  0  0  0  0
  5 10  1  0  0  0  0
  6 11  1  0  0  0  0
  7 12  1  0  0  0  0
  7  6  2  0  0  0  0
  8  7  1  0  0  0  0
  9 16  1  0  0  0  0
 13  8  1  0  0  0  0
 14 15  2  0  0  0  0
 15 17  1  0  0  0  0
 15 16  1  0  0  0  0
 17 20  1  0  0  0  0
 18 17  1  0  0  0  0
 19 17  1  0  0  0  0
M  RAD  3   2   2   3   3   4   2
M  END
