Coordinates from ORCA-job PhN2+~CF3COO-_B3LYPG-6-31G_dp-CH-Scan-d09-49-n800
 OpenBabel11261919373D

 20 19  0  0  0  0  0  0  0  0999 V2000
   -1.4570    0.1596   -0.1426 C   0  0  0  0  0  0  0  0  0  0  0  0
   -2.8431    0.2126   -0.2830 N   0  0  0  0  0  0  0  0  0  0  0  0
   -3.9521    0.3164   -0.3906 N   0  0  0  0  0  0  0  0  0  0  0  0
   -0.8790    1.4302    0.0084 C   0  0  0  0  0  0  0  0  0  0  0  0
    0.5319    1.2872    0.1467 C   0  0  0  0  0  0  0  0  0  0  0  0
    1.1951    0.0644    0.1306 C   0  0  0  0  0  0  0  0  0  0  0  0
    0.4975   -1.1590   -0.0303 C   0  0  0  0  0  0  0  0  0  0  0  0
   -0.8713   -1.1359   -0.1732 C   0  0  0  0  0  0  0  0  0  0  0  0
   -3.0994    4.4813    0.0251 H   0  0  0  0  0  0  0  0  0  0  0  0
    1.1395    2.1843    0.2746 H   0  0  0  0  0  0  0  0  0  0  0  0
    2.2778    0.0308    0.2447 H   0  0  0  0  0  0  0  0  0  0  0  0
    1.0359   -2.1013   -0.0405 H   0  0  0  0  0  0  0  0  0  0  0  0
   -1.4601   -2.0405   -0.3005 H   0  0  0  0  0  0  0  0  0  0  0  0
   -4.9968    3.1192   -0.2996 O   0  0  0  0  0  0  0  0  0  0  0  0
   -4.9594    4.3183   -0.1922 C   0  0  0  0  0  0  0  0  0  0  0  0
   -3.8726    5.0711   -0.0085 O   0  0  0  0  0  0  0  0  0  0  0  0
   -6.2157    5.2146   -0.2480 C   0  0  0  0  0  0  0  0  0  0  0  0
   -6.1030    6.1167   -1.2385 F   0  0  0  0  0  0  0  0  0  0  0  0
   -7.3036    4.4728   -0.4639 F   0  0  0  0  0  0  0  0  0  0  0  0
   -6.3660    5.8760    0.9129 F   0  0  0  0  0  0  0  0  0  0  0  0
  1  4  1  0  0  0  0
  2  1  1  0  0  0  0
  3  2  1  0  0  0  0
  4  5  2  0  0  0  0
  5 10  1  0  0  0  0
  6  5  1  0  0  0  0
  6 11  1  0  0  0  0
  7  6  2  0  0  0  0
  8  1  2  0  0  0  0
  8  7  1  0  0  0  0
 12  7  1  0  0  0  0
 13  8  1  0  0  0  0
 14 15  2  0  0  0  0
 15 16  1  0  0  0  0
 16  9  1  0  0  0  0
 17 15  1  0  0  0  0
 17 20  1  0  0  0  0
 18 17  1  0  0  0  0
 19 17  1  0  0  0  0
M  RAD  3   2   2   3   3   4   2
M  END
