Coordinates from ORCA-job PhN2+~CF3COO-_B3LYPG-6-31G_dp-CH-Scan-d09-49-n800
 OpenBabel11261919373D

 20 19  0  0  0  0  0  0  0  0999 V2000
   -1.5173    0.1781   -0.1472 C   0  0  0  0  0  0  0  0  0  0  0  0
   -2.9034    0.1904   -0.2903 N   0  0  0  0  0  0  0  0  0  0  0  0
   -4.0138    0.2578   -0.4091 N   0  0  0  0  0  0  0  0  0  0  0  0
   -0.9710    1.4633    0.0007 C   0  0  0  0  0  0  0  0  0  0  0  0
    0.4422    1.3590    0.1426 C   0  0  0  0  0  0  0  0  0  0  0  0
    1.1375    0.1539    0.1319 C   0  0  0  0  0  0  0  0  0  0  0  0
    0.4727   -1.0875   -0.0262 C   0  0  0  0  0  0  0  0  0  0  0  0
   -0.8961   -1.1008   -0.1720 C   0  0  0  0  0  0  0  0  0  0  0  0
   -3.0401    4.2840    0.0127 H   0  0  0  0  0  0  0  0  0  0  0  0
    1.0251    2.2724    0.2690 H   0  0  0  0  0  0  0  0  0  0  0  0
    2.2203    0.1496    0.2484 H   0  0  0  0  0  0  0  0  0  0  0  0
    1.0353   -2.0155   -0.0319 H   0  0  0  0  0  0  0  0  0  0  0  0
   -1.4604   -2.0211   -0.2971 H   0  0  0  0  0  0  0  0  0  0  0  0
   -5.0165    3.0329   -0.3095 O   0  0  0  0  0  0  0  0  0  0  0  0
   -4.9079    4.2276   -0.1947 C   0  0  0  0  0  0  0  0  0  0  0  0
   -3.7805    4.9156   -0.0128 O   0  0  0  0  0  0  0  0  0  0  0  0
   -6.1120    5.1936   -0.2375 C   0  0  0  0  0  0  0  0  0  0  0  0
   -5.9540    6.0962   -1.2213 F   0  0  0  0  0  0  0  0  0  0  0  0
   -7.2416    4.5163   -0.4534 F   0  0  0  0  0  0  0  0  0  0  0  0
   -6.2198    5.8532    0.9294 F   0  0  0  0  0  0  0  0  0  0  0  0
  1  4  1  0  0  0  0
  2  1  1  0  0  0  0
  3  2  1  0  0  0  0
  4  5  2  0  0  0  0
  5 10  1  0  0  0  0
  6  5  1  0  0  0  0
  6 11  1  0  0  0  0
  7  6  2  0  0  0  0
  8  1  2  0  0  0  0
  8  7  1  0  0  0  0
 12  7  1  0  0  0  0
 13  8  1  0  0  0  0
 14 15  2  0  0  0  0
 15 16  1  0  0  0  0
 16  9  1  0  0  0  0
 17 15  1  0  0  0  0
 17 20  1  0  0  0  0
 18 17  1  0  0  0  0
 19 17  1  0  0  0  0
M  RAD  3   2   2   3   3   4   2
M  END
