Coordinates from ORCA-job PhN2+~CF3COO-_B3LYPG-6-31G_dp-CH-Scan-d09-49-n800
 OpenBabel11261919373D

 20 19  0  0  0  0  0  0  0  0999 V2000
   -1.8267    0.2825   -0.1682 C   0  0  0  0  0  0  0  0  0  0  0  0
   -3.1962    0.1005   -0.3232 N   0  0  0  0  0  0  0  0  0  0  0  0
   -4.3029    0.0095   -0.4437 N   0  0  0  0  0  0  0  0  0  0  0  0
   -1.4348    1.6240   -0.0179 C   0  0  0  0  0  0  0  0  0  0  0  0
   -0.0274    1.7117    0.1353 C   0  0  0  0  0  0  0  0  0  0  0  0
    0.8184    0.6057    0.1333 C   0  0  0  0  0  0  0  0  0  0  0  0
    0.3194   -0.7079   -0.0260 C   0  0  0  0  0  0  0  0  0  0  0  0
   -1.0362   -0.8973   -0.1826 C   0  0  0  0  0  0  0  0  0  0  0  0
   -2.7820    3.3336   -0.0201 H   0  0  0  0  0  0  0  0  0  0  0  0
    0.4247    2.6944    0.2633 H   0  0  0  0  0  0  0  0  0  0  0  0
    1.8908    0.7436    0.2579 H   0  0  0  0  0  0  0  0  0  0  0  0
    0.9943   -1.5573   -0.0246 H   0  0  0  0  0  0  0  0  0  0  0  0
   -1.4744   -1.8831   -0.3093 H   0  0  0  0  0  0  0  0  0  0  0  0
   -5.0714    2.6658   -0.3380 O   0  0  0  0  0  0  0  0  0  0  0  0
   -4.6272    3.7841   -0.1932 C   0  0  0  0  0  0  0  0  0  0  0  0
   -3.3717    4.1419   -0.0179 O   0  0  0  0  0  0  0  0  0  0  0  0
   -5.5433    5.0294   -0.1975 C   0  0  0  0  0  0  0  0  0  0  0  0
   -5.2003    5.8622   -1.1982 F   0  0  0  0  0  0  0  0  0  0  0  0
   -6.8217    4.6741   -0.3614 F   0  0  0  0  0  0  0  0  0  0  0  0
   -5.4329    5.7013    0.9637 F   0  0  0  0  0  0  0  0  0  0  0  0
  1  4  1  0  0  0  0
  2  1  1  0  0  0  0
  3  2  1  0  0  0  0
  4  5  2  0  0  0  0
  5 10  1  0  0  0  0
  6  5  1  0  0  0  0
  6 11  1  0  0  0  0
  7 12  1  0  0  0  0
  7  6  2  0  0  0  0
  8  1  2  0  0  0  0
  8  7  1  0  0  0  0
  9 16  1  0  0  0  0
 13  8  1  0  0  0  0
 14 15  2  0  0  0  0
 15 16  1  0  0  0  0
 17 15  1  0  0  0  0
 17 20  1  0  0  0  0
 18 17  1  0  0  0  0
 19 17  1  0  0  0  0
M  RAD  3   2   2   3   3   4   2
M  END
