Coordinates from ORCA-job PhN2+~CF3COO-_B3LYPG-6-31G_dp-CH-Scan-d09-49-n800
 OpenBabel11261919373D

 20 19  0  0  0  0  0  0  0  0999 V2000
   -1.4215    0.1518   -0.1378 C   0  0  0  0  0  0  0  0  0  0  0  0
   -2.8071    0.2316   -0.2733 N   0  0  0  0  0  0  0  0  0  0  0  0
   -3.9142    0.3584   -0.3765 N   0  0  0  0  0  0  0  0  0  0  0  0
   -0.8217    1.4118    0.0165 C   0  0  0  0  0  0  0  0  0  0  0  0
    0.5872    1.2428    0.1498 C   0  0  0  0  0  0  0  0  0  0  0  0
    1.2286    0.0086    0.1266 C   0  0  0  0  0  0  0  0  0  0  0  0
    0.5090   -1.2018   -0.0372 C   0  0  0  0  0  0  0  0  0  0  0  0
   -0.8596   -1.1539   -0.1758 C   0  0  0  0  0  0  0  0  0  0  0  0
   -3.1373    4.6103    0.0521 H   0  0  0  0  0  0  0  0  0  0  0  0
    1.2112    2.1284    0.2795 H   0  0  0  0  0  0  0  0  0  0  0  0
    2.3109   -0.0448    0.2372 H   0  0  0  0  0  0  0  0  0  0  0  0
    1.0308   -2.1533   -0.0530 H   0  0  0  0  0  0  0  0  0  0  0  0
   -1.4648   -2.0473   -0.3050 H   0  0  0  0  0  0  0  0  0  0  0  0
   -4.9744    3.1747   -0.2892 O   0  0  0  0  0  0  0  0  0  0  0  0
   -4.9866    4.3744   -0.1855 C   0  0  0  0  0  0  0  0  0  0  0  0
   -3.9315    5.1701    0.0073 O   0  0  0  0  0  0  0  0  0  0  0  0
   -6.2763    5.2203   -0.2599 C   0  0  0  0  0  0  0  0  0  0  0  0
   -6.1943    6.1084   -1.2659 F   0  0  0  0  0  0  0  0  0  0  0  0
   -7.3332    4.4328   -0.4665 F   0  0  0  0  0  0  0  0  0  0  0  0
   -6.4568    5.8955    0.8885 F   0  0  0  0  0  0  0  0  0  0  0  0
  1  4  1  0  0  0  0
  2  1  1  0  0  0  0
  3  2  1  0  0  0  0
  4  5  2  0  0  0  0
  5 10  1  0  0  0  0
  6  5  1  0  0  0  0
  6 11  1  0  0  0  0
  7  6  2  0  0  0  0
  8  1  2  0  0  0  0
  8  7  1  0  0  0  0
 12  7  1  0  0  0  0
 13  8  1  0  0  0  0
 14 15  2  0  0  0  0
 15 16  1  0  0  0  0
 16  9  1  0  0  0  0
 17 15  1  0  0  0  0
 17 20  1  0  0  0  0
 18 17  1  0  0  0  0
 19 17  1  0  0  0  0
M  RAD  3   2   2   3   3   4   2
M  END
