Coordinates from ORCA-job PhN2+~CF3COO-_B3LYPG-6-31G_dp-CH-Scan-d09-49-n800
 OpenBabel11261919373D

 20 19  0  0  0  0  0  0  0  0999 V2000
   -1.5829    0.2013   -0.1538 C   0  0  0  0  0  0  0  0  0  0  0  0
   -2.9672    0.1715   -0.3029 N   0  0  0  0  0  0  0  0  0  0  0  0
   -4.0793    0.2007   -0.4185 N   0  0  0  0  0  0  0  0  0  0  0  0
   -1.0697    1.4999   -0.0009 C   0  0  0  0  0  0  0  0  0  0  0  0
    0.3443    1.4361    0.1462 C   0  0  0  0  0  0  0  0  0  0  0  0
    1.0727    0.2505    0.1360 C   0  0  0  0  0  0  0  0  0  0  0  0
    0.4430   -1.0079   -0.0271 C   0  0  0  0  0  0  0  0  0  0  0  0
   -0.9244   -1.0587   -0.1784 C   0  0  0  0  0  0  0  0  0  0  0  0
   -2.9811    4.0699    0.0022 H   0  0  0  0  0  0  0  0  0  0  0  0
    0.9003    2.3652    0.2763 H   0  0  0  0  0  0  0  0  0  0  0  0
    2.1547    0.2763    0.2568 H   0  0  0  0  0  0  0  0  0  0  0  0
    1.0306   -1.9203   -0.0325 H   0  0  0  0  0  0  0  0  0  0  0  0
   -1.4621   -1.9941   -0.3076 H   0  0  0  0  0  0  0  0  0  0  0  0
   -5.0370    2.9431   -0.3143 O   0  0  0  0  0  0  0  0  0  0  0  0
   -4.8514    4.1285   -0.1944 C   0  0  0  0  0  0  0  0  0  0  0  0
   -3.6847    4.7445   -0.0170 O   0  0  0  0  0  0  0  0  0  0  0  0
   -5.9953    5.1658   -0.2279 C   0  0  0  0  0  0  0  0  0  0  0  0
   -5.7995    6.0472   -1.2243 F   0  0  0  0  0  0  0  0  0  0  0  0
   -7.1676    4.5563   -0.4188 F   0  0  0  0  0  0  0  0  0  0  0  0
   -6.0450    5.8433    0.9327 F   0  0  0  0  0  0  0  0  0  0  0  0
  1  4  1  0  0  0  0
  2  1  1  0  0  0  0
  3  2  1  0  0  0  0
  4  5  2  0  0  0  0
  5 10  1  0  0  0  0
  6  5  1  0  0  0  0
  6 11  1  0  0  0  0
  7  6  2  0  0  0  0
  8  1  2  0  0  0  0
  8  7  1  0  0  0  0
 12  7  1  0  0  0  0
 13  8  1  0  0  0  0
 14 15  2  0  0  0  0
 15 16  1  0  0  0  0
 16  9  1  0  0  0  0
 17 15  1  0  0  0  0
 17 20  1  0  0  0  0
 18 17  1  0  0  0  0
 19 17  1  0  0  0  0
M  RAD  3   2   2   3   3   4   2
M  END
