Coordinates from ORCA-job PhN2+~CF3COO-_B3LYPG-6-31G_dp-CH-Scan-d09-49-n800
 OpenBabel11261919373D

 20 19  0  0  0  0  0  0  0  0999 V2000
   -1.8047    0.2750   -0.1656 C   0  0  0  0  0  0  0  0  0  0  0  0
   -3.1762    0.1065   -0.3190 N   0  0  0  0  0  0  0  0  0  0  0  0
   -4.2839    0.0241   -0.4383 N   0  0  0  0  0  0  0  0  0  0  0  0
   -1.4021    1.6131   -0.0139 C   0  0  0  0  0  0  0  0  0  0  0  0
    0.0067    1.6877    0.1374 C   0  0  0  0  0  0  0  0  0  0  0  0
    0.8426    0.5742    0.1326 C   0  0  0  0  0  0  0  0  0  0  0  0
    0.3319   -0.7350   -0.0280 C   0  0  0  0  0  0  0  0  0  0  0  0
   -1.0253   -0.9124   -0.1829 C   0  0  0  0  0  0  0  0  0  0  0  0
   -2.8024    3.3956   -0.0151 H   0  0  0  0  0  0  0  0  0  0  0  0
    0.4684    2.6659    0.2662 H   0  0  0  0  0  0  0  0  0  0  0  0
    1.9165    0.7023    0.2559 H   0  0  0  0  0  0  0  0  0  0  0  0
    0.9996   -1.5902   -0.0287 H   0  0  0  0  0  0  0  0  0  0  0  0
   -1.4724   -1.8941   -0.3105 H   0  0  0  0  0  0  0  0  0  0  0  0
   -5.0730    2.6878   -0.3359 O   0  0  0  0  0  0  0  0  0  0  0  0
   -4.6497    3.8134   -0.1928 C   0  0  0  0  0  0  0  0  0  0  0  0
   -3.3988    4.1924   -0.0151 O   0  0  0  0  0  0  0  0  0  0  0  0
   -5.5844    5.0445   -0.2018 C   0  0  0  0  0  0  0  0  0  0  0  0
   -5.2505    5.8809   -1.2022 F   0  0  0  0  0  0  0  0  0  0  0  0
   -6.8560    4.6685   -0.3697 F   0  0  0  0  0  0  0  0  0  0  0  0
   -5.4880    5.7187    0.9591 F   0  0  0  0  0  0  0  0  0  0  0  0
  1  4  1  0  0  0  0
  2  1  1  0  0  0  0
  3  2  1  0  0  0  0
  4  5  2  0  0  0  0
  5 10  1  0  0  0  0
  6  5  1  0  0  0  0
  6 11  1  0  0  0  0
  7  6  2  0  0  0  0
  8  1  2  0  0  0  0
  8  7  1  0  0  0  0
 12  7  1  0  0  0  0
 13  8  1  0  0  0  0
 14 15  2  0  0  0  0
 15 16  1  0  0  0  0
 16  9  1  0  0  0  0
 17 15  1  0  0  0  0
 17 20  1  0  0  0  0
 18 17  1  0  0  0  0
 19 17  1  0  0  0  0
M  RAD  3   2   2   3   3   4   2
M  END
