Coordinates from ORCA-job PhN2+~CF3COO-_B3LYPG-6-31G_dp-CH-Scan-d09-49-n800
 OpenBabel11261919373D

 20 19  0  0  0  0  0  0  0  0999 V2000
   -1.4872    0.1681   -0.1455 C   0  0  0  0  0  0  0  0  0  0  0  0
   -2.8733    0.2000   -0.2881 N   0  0  0  0  0  0  0  0  0  0  0  0
   -3.9833    0.2854   -0.4001 N   0  0  0  0  0  0  0  0  0  0  0  0
   -0.9257    1.4465    0.0035 C   0  0  0  0  0  0  0  0  0  0  0  0
    0.4865    1.3235    0.1442 C   0  0  0  0  0  0  0  0  0  0  0  0
    1.1663    0.1098    0.1318 C   0  0  0  0  0  0  0  0  0  0  0  0
    0.4858   -1.1232   -0.0273 C   0  0  0  0  0  0  0  0  0  0  0  0
   -0.8831   -1.1190   -0.1723 C   0  0  0  0  0  0  0  0  0  0  0  0
   -3.0691    4.3804    0.0165 H   0  0  0  0  0  0  0  0  0  0  0  0
    1.0814    2.2291    0.2710 H   0  0  0  0  0  0  0  0  0  0  0  0
    2.2492    0.0914    0.2476 H   0  0  0  0  0  0  0  0  0  0  0  0
    1.0368   -2.0581   -0.0345 H   0  0  0  0  0  0  0  0  0  0  0  0
   -1.4592   -2.0319   -0.2982 H   0  0  0  0  0  0  0  0  0  0  0  0
   -5.0085    3.0754   -0.3051 O   0  0  0  0  0  0  0  0  0  0  0  0
   -4.9344    4.2726   -0.1943 C   0  0  0  0  0  0  0  0  0  0  0  0
   -3.8257    4.9921   -0.0126 O   0  0  0  0  0  0  0  0  0  0  0  0
   -6.1641    5.2055   -0.2419 C   0  0  0  0  0  0  0  0  0  0  0  0
   -6.0277    6.1100   -1.2272 F   0  0  0  0  0  0  0  0  0  0  0  0
   -7.2740    4.4973   -0.4592 F   0  0  0  0  0  0  0  0  0  0  0  0
   -6.2922    5.8640    0.9234 F   0  0  0  0  0  0  0  0  0  0  0  0
  1  4  1  0  0  0  0
  2  1  1  0  0  0  0
  3  2  1  0  0  0  0
  4  5  2  0  0  0  0
  5 10  1  0  0  0  0
  6  5  1  0  0  0  0
  6 11  1  0  0  0  0
  7  6  2  0  0  0  0
  8  1  2  0  0  0  0
  8  7  1  0  0  0  0
 12  7  1  0  0  0  0
 13  8  1  0  0  0  0
 14 15  2  0  0  0  0
 15 16  1  0  0  0  0
 16  9  1  0  0  0  0
 17 15  1  0  0  0  0
 17 20  1  0  0  0  0
 18 17  1  0  0  0  0
 19 17  1  0  0  0  0
M  RAD  3   2   2   3   3   4   2
M  END
