Coordinates from ORCA-job PhN2+~CF3COO-_B3LYPG-6-31G_dp-CH-Scan-d09-49-n800
 OpenBabel11261919373D

 20 19  0  0  0  0  0  0  0  0999 V2000
   -2.0570    0.6584   -0.2248 C   0  0  0  0  0  0  0  0  0  0  0  0
   -3.4492    0.5124   -0.4433 N   0  0  0  0  0  0  0  0  0  0  0  0
   -4.3660   -0.0995   -0.6524 N   0  0  0  0  0  0  0  0  0  0  0  0
   -1.4291    1.8999   -0.2805 C   0  0  0  0  0  0  0  0  0  0  0  0
   -0.0444    1.8990   -0.0901 C   0  0  0  0  0  0  0  0  0  0  0  0
    0.6539    0.7161    0.1554 C   0  0  0  0  0  0  0  0  0  0  0  0
   -0.0171   -0.5149    0.2056 C   0  0  0  0  0  0  0  0  0  0  0  0
   -1.3877   -0.5617    0.0084 C   0  0  0  0  0  0  0  0  0  0  0  0
   -2.0967    2.9676   -0.4836 H   0  0  0  0  0  0  0  0  0  0  0  0
    0.4898    2.8433   -0.1275 H   0  0  0  0  0  0  0  0  0  0  0  0
    1.7284    0.7444    0.3129 H   0  0  0  0  0  0  0  0  0  0  0  0
    0.5281   -1.4330    0.3977 H   0  0  0  0  0  0  0  0  0  0  0  0
   -1.9365   -1.4972    0.0360 H   0  0  0  0  0  0  0  0  0  0  0  0
   -4.4144    2.4805    0.0028 O   0  0  0  0  0  0  0  0  0  0  0  0
   -4.1587    3.6882   -0.2518 C   0  0  0  0  0  0  0  0  0  0  0  0
   -3.0836    4.2104   -0.6115 O   0  0  0  0  0  0  0  0  0  0  0  0
   -5.3768    4.6367   -0.0582 C   0  0  0  0  0  0  0  0  0  0  0  0
   -5.1275    5.8814   -0.4917 F   0  0  0  0  0  0  0  0  0  0  0  0
   -6.4559    4.1753   -0.7226 F   0  0  0  0  0  0  0  0  0  0  0  0
   -5.7012    4.7116    1.2510 F   0  0  0  0  0  0  0  0  0  0  0  0
  1  8  1  0  0  0  0
  2  1  1  0  0  0  0
  3  2  2  0  0  0  0
  4  1  2  0  0  0  0
  4  5  1  0  0  0  0
  5  6  2  0  0  0  0
  6  7  1  0  0  0  0
  6 11  1  0  0  0  0
  7 12  1  0  0  0  0
  8 13  1  0  0  0  0
  8  7  2  0  0  0  0
  9  4  1  0  0  0  0
 10  5  1  0  0  0  0
 15 17  1  0  0  0  0
 15 14  1  0  0  0  0
 16 15  2  0  0  0  0
 17 20  1  0  0  0  0
 18 17  1  0  0  0  0
 19 17  1  0  0  0  0
M  RAD  2   3   2  14   2
M  END
