Coordinates from ORCA-job PhN2+~CF3COO-_B3LYPG-6-31G_dp-CH-Scan-d09-49-n800
 OpenBabel11261919373D

 20 19  0  0  0  0  0  0  0  0999 V2000
   -1.7348    0.2503   -0.1593 C   0  0  0  0  0  0  0  0  0  0  0  0
   -3.1117    0.1233   -0.3093 N   0  0  0  0  0  0  0  0  0  0  0  0
   -4.2224    0.0724   -0.4223 N   0  0  0  0  0  0  0  0  0  0  0  0
   -1.2990    1.5773   -0.0027 C   0  0  0  0  0  0  0  0  0  0  0  0
    0.1132    1.6102    0.1447 C   0  0  0  0  0  0  0  0  0  0  0  0
    0.9178    0.4743    0.1322 C   0  0  0  0  0  0  0  0  0  0  0  0
    0.3710   -0.8205   -0.0334 C   0  0  0  0  0  0  0  0  0  0  0  0
   -0.9906   -0.9601   -0.1851 C   0  0  0  0  0  0  0  0  0  0  0  0
   -2.8632    3.5937   -0.0004 H   0  0  0  0  0  0  0  0  0  0  0  0
    0.6041    2.5741    0.2768 H   0  0  0  0  0  0  0  0  0  0  0  0
    1.9953    0.5716    0.2529 H   0  0  0  0  0  0  0  0  0  0  0  0
    1.0157   -1.6933   -0.0404 H   0  0  0  0  0  0  0  0  0  0  0  0
   -1.4651   -1.9286   -0.3163 H   0  0  0  0  0  0  0  0  0  0  0  0
   -5.0748    2.7613   -0.3279 O   0  0  0  0  0  0  0  0  0  0  0  0
   -4.7192    3.9085   -0.1916 C   0  0  0  0  0  0  0  0  0  0  0  0
   -3.4866    4.3559   -0.0088 O   0  0  0  0  0  0  0  0  0  0  0  0
   -5.7142    5.0906   -0.2144 C   0  0  0  0  0  0  0  0  0  0  0  0
   -5.4159    5.9349   -1.2186 F   0  0  0  0  0  0  0  0  0  0  0  0
   -6.9628    4.6476   -0.3870 F   0  0  0  0  0  0  0  0  0  0  0  0
   -5.6582    5.7752    0.9424 F   0  0  0  0  0  0  0  0  0  0  0  0
  1  4  1  0  0  0  0
  2  1  1  0  0  0  0
  3  2  1  0  0  0  0
  4  5  2  0  0  0  0
  5 10  1  0  0  0  0
  6  5  1  0  0  0  0
  6 11  1  0  0  0  0
  7  6  2  0  0  0  0
  8  1  2  0  0  0  0
  8  7  1  0  0  0  0
 12  7  1  0  0  0  0
 13  8  1  0  0  0  0
 14 15  2  0  0  0  0
 15 16  1  0  0  0  0
 16  9  1  0  0  0  0
 17 15  1  0  0  0  0
 17 20  1  0  0  0  0
 18 17  1  0  0  0  0
 19 17  1  0  0  0  0
M  RAD  3   2   2   3   3   4   2
M  END
