Coordinates from ORCA-job PhN2+~CF3COO-_B3LYPG-6-31G_dp-CH-Scan-d09-49-n800
 OpenBabel11261919373D

 20 19  0  0  0  0  0  0  0  0999 V2000
   -1.8096    0.2767   -0.1662 C   0  0  0  0  0  0  0  0  0  0  0  0
   -3.1807    0.1052   -0.3200 N   0  0  0  0  0  0  0  0  0  0  0  0
   -4.2881    0.0208   -0.4395 N   0  0  0  0  0  0  0  0  0  0  0  0
   -1.4093    1.6156   -0.0148 C   0  0  0  0  0  0  0  0  0  0  0  0
   -0.0008    1.6930    0.1370 C   0  0  0  0  0  0  0  0  0  0  0  0
    0.8373    0.5812    0.1328 C   0  0  0  0  0  0  0  0  0  0  0  0
    0.3291   -0.7290   -0.0275 C   0  0  0  0  0  0  0  0  0  0  0  0
   -1.0277   -0.9090   -0.1828 C   0  0  0  0  0  0  0  0  0  0  0  0
   -2.7979    3.3818   -0.0162 H   0  0  0  0  0  0  0  0  0  0  0  0
    0.4587    2.6723    0.2656 H   0  0  0  0  0  0  0  0  0  0  0  0
    1.9108    0.7115    0.2563 H   0  0  0  0  0  0  0  0  0  0  0  0
    0.9984   -1.5829   -0.0278 H   0  0  0  0  0  0  0  0  0  0  0  0
   -1.4729   -1.8917   -0.3102 H   0  0  0  0  0  0  0  0  0  0  0  0
   -5.0727    2.6828   -0.3363 O   0  0  0  0  0  0  0  0  0  0  0  0
   -4.6447    3.8068   -0.1929 C   0  0  0  0  0  0  0  0  0  0  0  0
   -3.3927    4.1811   -0.0157 O   0  0  0  0  0  0  0  0  0  0  0  0
   -5.5753    5.0412   -0.2008 C   0  0  0  0  0  0  0  0  0  0  0  0
   -5.2393    5.8768   -1.2013 F   0  0  0  0  0  0  0  0  0  0  0  0
   -6.8484    4.6698   -0.3679 F   0  0  0  0  0  0  0  0  0  0  0  0
   -5.4758    5.7149    0.9601 F   0  0  0  0  0  0  0  0  0  0  0  0
  1  4  1  0  0  0  0
  2  1  1  0  0  0  0
  3  2  1  0  0  0  0
  4  5  2  0  0  0  0
  5 10  1  0  0  0  0
  6  5  1  0  0  0  0
  6 11  1  0  0  0  0
  7  6  2  0  0  0  0
  8  1  2  0  0  0  0
  8  7  1  0  0  0  0
  9 16  1  0  0  0  0
 12  7  1  0  0  0  0
 13  8  1  0  0  0  0
 14 15  2  0  0  0  0
 15 16  1  0  0  0  0
 17 15  1  0  0  0  0
 17 20  1  0  0  0  0
 18 17  1  0  0  0  0
 19 17  1  0  0  0  0
M  RAD  3   2   2   3   3   4   2
M  END
