Coordinates from ORCA-job PhN2+~CF3COO-_B3LYPG-6-31G_dp-CH-Scan-d09-49-n800
 OpenBabel11261919373D

 20 19  0  0  0  0  0  0  0  0999 V2000
   -2.0572    0.6567   -0.2231 C   0  0  0  0  0  0  0  0  0  0  0  0
   -3.4493    0.5082   -0.4397 N   0  0  0  0  0  0  0  0  0  0  0  0
   -4.3666   -0.1036   -0.6466 N   0  0  0  0  0  0  0  0  0  0  0  0
   -1.4313    1.8993   -0.2782 C   0  0  0  0  0  0  0  0  0  0  0  0
   -0.0463    1.8994   -0.0893 C   0  0  0  0  0  0  0  0  0  0  0  0
    0.6540    0.7171    0.1537 C   0  0  0  0  0  0  0  0  0  0  0  0
   -0.0154   -0.5149    0.2032 C   0  0  0  0  0  0  0  0  0  0  0  0
   -1.3861   -0.5631    0.0077 C   0  0  0  0  0  0  0  0  0  0  0  0
   -2.1026    2.9710   -0.4795 H   0  0  0  0  0  0  0  0  0  0  0  0
    0.4870    2.8443   -0.1261 H   0  0  0  0  0  0  0  0  0  0  0  0
    1.7286    0.7466    0.3098 H   0  0  0  0  0  0  0  0  0  0  0  0
    0.5312   -1.4326    0.3933 H   0  0  0  0  0  0  0  0  0  0  0  0
   -1.9337   -1.4993    0.0349 H   0  0  0  0  0  0  0  0  0  0  0  0
   -4.4188    2.4796    0.0006 O   0  0  0  0  0  0  0  0  0  0  0  0
   -4.1597    3.6868   -0.2504 C   0  0  0  0  0  0  0  0  0  0  0  0
   -3.0812    4.2070   -0.6045 O   0  0  0  0  0  0  0  0  0  0  0  0
   -5.3754    4.6388   -0.0605 C   0  0  0  0  0  0  0  0  0  0  0  0
   -5.1212    5.8829   -0.4929 F   0  0  0  0  0  0  0  0  0  0  0  0
   -6.4538    4.1806   -0.7282 F   0  0  0  0  0  0  0  0  0  0  0  0
   -5.7035    4.7142    1.2477 F   0  0  0  0  0  0  0  0  0  0  0  0
  1  8  1  0  0  0  0
  2  1  1  0  0  0  0
  3  2  2  0  0  0  0
  4  1  2  0  0  0  0
  4  5  1  0  0  0  0
  5  6  2  0  0  0  0
  6  7  1  0  0  0  0
  6 11  1  0  0  0  0
  7 12  1  0  0  0  0
  8 13  1  0  0  0  0
  8  7  2  0  0  0  0
  9  4  1  0  0  0  0
 10  5  1  0  0  0  0
 15 17  1  0  0  0  0
 15 14  1  0  0  0  0
 16 15  2  0  0  0  0
 17 20  1  0  0  0  0
 18 17  1  0  0  0  0
 19 17  1  0  0  0  0
M  RAD  2   3   2  14   2
M  END
