Coordinates from ORCA-job PhN2+~CF3COO-_B3LYPG-6-31G_dp-CH-Scan-d09-49-n800
 OpenBabel11261919373D

 20 19  0  0  0  0  0  0  0  0999 V2000
   -1.3187    0.7233   -1.2204 C   0  0  0  0  0  0  0  0  0  0  0  0
   -2.1940    0.8392   -2.2999 N   0  0  0  0  0  0  0  0  0  0  0  0
   -2.8296    0.9481   -3.2142 N   0  0  0  0  0  0  0  0  0  0  0  0
    0.0053    0.9942   -1.5957 C   0  0  0  0  0  0  0  0  0  0  0  0
    0.8488    0.8480   -0.4550 C   0  0  0  0  0  0  0  0  0  0  0  0
    0.3915    0.4821    0.8070 C   0  0  0  0  0  0  0  0  0  0  0  0
   -0.9819    0.2345    1.0600 C   0  0  0  0  0  0  0  0  0  0  0  0
   -1.8869    0.3551    0.0294 C   0  0  0  0  0  0  0  0  0  0  0  0
   -2.8325    4.7003   -0.6390 H   0  0  0  0  0  0  0  0  0  0  0  0
    1.9191    1.0294   -0.5677 H   0  0  0  0  0  0  0  0  0  0  0  0
    1.0947    0.3805    1.6327 H   0  0  0  0  0  0  0  0  0  0  0  0
   -1.3146   -0.0461    2.0543 H   0  0  0  0  0  0  0  0  0  0  0  0
   -2.9529    0.1916    0.1590 H   0  0  0  0  0  0  0  0  0  0  0  0
   -4.0472    2.7024   -0.8757 O   0  0  0  0  0  0  0  0  0  0  0  0
   -4.3386    3.6634   -0.2088 C   0  0  0  0  0  0  0  0  0  0  0  0
   -3.6341    4.7915   -0.0952 O   0  0  0  0  0  0  0  0  0  0  0  0
   -5.6207    3.7483    0.6479 C   0  0  0  0  0  0  0  0  0  0  0  0
   -6.4038    4.7472    0.2086 F   0  0  0  0  0  0  0  0  0  0  0  0
   -6.2984    2.6016    0.5724 F   0  0  0  0  0  0  0  0  0  0  0  0
   -5.3071    3.9843    1.9323 F   0  0  0  0  0  0  0  0  0  0  0  0
  1  8  1  0  0  0  0
  2  1  1  0  0  0  0
  3  2  1  0  0  0  0
  4  1  2  0  0  0  0
  4  5  1  0  0  0  0
  5  6  2  0  0  0  0
  6  7  1  0  0  0  0
  6 11  1  0  0  0  0
  7 12  1  0  0  0  0
  8 13  1  0  0  0  0
  8  7  2  0  0  0  0
  9 16  1  0  0  0  0
 10  5  1  0  0  0  0
 14 15  2  0  0  0  0
 15 16  1  0  0  0  0
 15 17  1  0  0  0  0
 17 20  1  0  0  0  0
 18 17  1  0  0  0  0
 19 17  1  0  0  0  0
M  RAD  3   2   2   3   3   4   2
M  END
