Coordinates from ORCA-job PhN2+~CF3COO-_B3LYPG-6-31G_dp-CH-Scan-d09-49-n800
 OpenBabel11261919373D

 20 19  0  0  0  0  0  0  0  0999 V2000
   -1.4947    0.1708   -0.1486 C   0  0  0  0  0  0  0  0  0  0  0  0
   -2.8805    0.1980   -0.2950 N   0  0  0  0  0  0  0  0  0  0  0  0
   -3.9917    0.2777   -0.3994 N   0  0  0  0  0  0  0  0  0  0  0  0
   -0.9374    1.4509    0.0022 C   0  0  0  0  0  0  0  0  0  0  0  0
    0.4748    1.3327    0.1457 C   0  0  0  0  0  0  0  0  0  0  0  0
    1.1586    0.1211    0.1348 C   0  0  0  0  0  0  0  0  0  0  0  0
    0.4823   -1.1140   -0.0261 C   0  0  0  0  0  0  0  0  0  0  0  0
   -0.8862   -1.1142   -0.1742 C   0  0  0  0  0  0  0  0  0  0  0  0
   -3.0610    4.3558    0.0089 H   0  0  0  0  0  0  0  0  0  0  0  0
    1.0664    2.2402    0.2735 H   0  0  0  0  0  0  0  0  0  0  0  0
    2.2412    0.1062    0.2529 H   0  0  0  0  0  0  0  0  0  0  0  0
    1.0363   -2.0472   -0.0324 H   0  0  0  0  0  0  0  0  0  0  0  0
   -1.4591   -2.0288   -0.3018 H   0  0  0  0  0  0  0  0  0  0  0  0
   -5.0109    3.0640   -0.3052 O   0  0  0  0  0  0  0  0  0  0  0  0
   -4.9274    4.2609   -0.1958 C   0  0  0  0  0  0  0  0  0  0  0  0
   -3.8131    4.9728   -0.0197 O   0  0  0  0  0  0  0  0  0  0  0  0
   -6.1507    5.2023   -0.2387 C   0  0  0  0  0  0  0  0  0  0  0  0
   -6.0128    6.1050   -1.2255 F   0  0  0  0  0  0  0  0  0  0  0  0
   -7.2667    4.5018   -0.4502 F   0  0  0  0  0  0  0  0  0  0  0  0
   -6.2690    5.8629    0.9265 F   0  0  0  0  0  0  0  0  0  0  0  0
  1  4  1  0  0  0  0
  2  1  1  0  0  0  0
  3  2  1  0  0  0  0
  4  5  2  0  0  0  0
  5 10  1  0  0  0  0
  6  5  1  0  0  0  0
  6 11  1  0  0  0  0
  7  6  2  0  0  0  0
  8  1  2  0  0  0  0
  8  7  1  0  0  0  0
 12  7  1  0  0  0  0
 13  8  1  0  0  0  0
 14 15  2  0  0  0  0
 15 16  1  0  0  0  0
 16  9  1  0  0  0  0
 17 15  1  0  0  0  0
 17 20  1  0  0  0  0
 18 17  1  0  0  0  0
 19 17  1  0  0  0  0
M  RAD  3   2   2   3   3   4   2
M  END
