Coordinates from ORCA-job PhN2+~CF3COO-_B3LYPG-6-31G_dp-CH-Scan-d09-49-n800
 OpenBabel11261919373D

 20 19  0  0  0  0  0  0  0  0999 V2000
   -1.4435    0.1562   -0.1410 C   0  0  0  0  0  0  0  0  0  0  0  0
   -2.8295    0.2191   -0.2802 N   0  0  0  0  0  0  0  0  0  0  0  0
   -3.9378    0.3314   -0.3865 N   0  0  0  0  0  0  0  0  0  0  0  0
   -0.8577    1.4229    0.0115 C   0  0  0  0  0  0  0  0  0  0  0  0
    0.5525    1.2705    0.1485 C   0  0  0  0  0  0  0  0  0  0  0  0
    1.2078    0.0436    0.1300 C   0  0  0  0  0  0  0  0  0  0  0  0
    0.5023   -1.1751   -0.0324 C   0  0  0  0  0  0  0  0  0  0  0  0
   -0.8665   -1.1431   -0.1743 C   0  0  0  0  0  0  0  0  0  0  0  0
   -3.1132    4.5289    0.0304 H   0  0  0  0  0  0  0  0  0  0  0  0
    1.1661    2.1635    0.2774 H   0  0  0  0  0  0  0  0  0  0  0  0
    2.2904    0.0027    0.2432 H   0  0  0  0  0  0  0  0  0  0  0  0
    1.0347   -2.1208   -0.0445 H   0  0  0  0  0  0  0  0  0  0  0  0
   -1.4612   -2.0436   -0.3026 H   0  0  0  0  0  0  0  0  0  0  0  0
   -4.9897    3.1398   -0.2964 O   0  0  0  0  0  0  0  0  0  0  0  0
   -4.9701    4.3394   -0.1907 C   0  0  0  0  0  0  0  0  0  0  0  0
   -3.8943    5.1080   -0.0055 O   0  0  0  0  0  0  0  0  0  0  0  0
   -6.2388    5.2176   -0.2512 C   0  0  0  0  0  0  0  0  0  0  0  0
   -6.1385    6.1157   -1.2466 F   0  0  0  0  0  0  0  0  0  0  0  0
   -7.3159    4.4592   -0.4634 F   0  0  0  0  0  0  0  0  0  0  0  0
   -6.3988    5.8830    0.9061 F   0  0  0  0  0  0  0  0  0  0  0  0
  1  4  1  0  0  0  0
  2  1  1  0  0  0  0
  3  2  1  0  0  0  0
  4  5  2  0  0  0  0
  5 10  1  0  0  0  0
  6  5  1  0  0  0  0
  6 11  1  0  0  0  0
  7  6  2  0  0  0  0
  8  1  2  0  0  0  0
  8  7  1  0  0  0  0
 12  7  1  0  0  0  0
 13  8  1  0  0  0  0
 14 15  2  0  0  0  0
 15 16  1  0  0  0  0
 16  9  1  0  0  0  0
 17 15  1  0  0  0  0
 17 20  1  0  0  0  0
 18 17  1  0  0  0  0
 19 17  1  0  0  0  0
M  RAD  3   2   2   3   3   4   2
M  END
