Coordinates from ORCA-job PhN2+~CF3COO-_B3LYPG-6-31G_dp-CH-Scan-d09-49-n800
 OpenBabel11261919373D

 20 19  0  0  0  0  0  0  0  0999 V2000
   -1.3397    0.1392   -0.1482 C   0  0  0  0  0  0  0  0  0  0  0  0
   -2.7196    0.2801   -0.2968 N   0  0  0  0  0  0  0  0  0  0  0  0
   -3.8190    0.4579   -0.4094 N   0  0  0  0  0  0  0  0  0  0  0  0
   -0.6903    1.3727    0.0151 C   0  0  0  0  0  0  0  0  0  0  0  0
    0.7092    1.1436    0.1631 C   0  0  0  0  0  0  0  0  0  0  0  0
    1.2979   -0.1166    0.1444 C   0  0  0  0  0  0  0  0  0  0  0  0
    0.5296   -1.2953   -0.0299 C   0  0  0  0  0  0  0  0  0  0  0  0
   -0.8342   -1.1895   -0.1834 C   0  0  0  0  0  0  0  0  0  0  0  0
   -3.2239    4.8955    0.0226 H   0  0  0  0  0  0  0  0  0  0  0  0
    1.3688    2.0017    0.3014 H   0  0  0  0  0  0  0  0  0  0  0  0
    2.3757   -0.2163    0.2669 H   0  0  0  0  0  0  0  0  0  0  0  0
    1.0110   -2.2680   -0.0422 H   0  0  0  0  0  0  0  0  0  0  0  0
   -1.4752   -2.0562   -0.3215 H   0  0  0  0  0  0  0  0  0  0  0  0
   -4.9305    3.3043   -0.2806 O   0  0  0  0  0  0  0  0  0  0  0  0
   -5.0482    4.4986   -0.1861 C   0  0  0  0  0  0  0  0  0  0  0  0
   -4.0634    5.3857   -0.0144 O   0  0  0  0  0  0  0  0  0  0  0  0
   -6.4077    5.2278   -0.2522 C   0  0  0  0  0  0  0  0  0  0  0  0
   -6.4252    6.0856   -1.2874 F   0  0  0  0  0  0  0  0  0  0  0  0
   -7.3965    4.3456   -0.4081 F   0  0  0  0  0  0  0  0  0  0  0  0
   -6.6204    5.9225    0.8786 F   0  0  0  0  0  0  0  0  0  0  0  0
  1  4  1  0  0  0  0
  2  1  1  0  0  0  0
  3  2  1  0  0  0  0
  4  5  2  0  0  0  0
  5 10  1  0  0  0  0
  6  5  1  0  0  0  0
  6 11  1  0  0  0  0
  7  6  2  0  0  0  0
  8  1  2  0  0  0  0
  8  7  1  0  0  0  0
 12  7  1  0  0  0  0
 13  8  1  0  0  0  0
 14 15  2  0  0  0  0
 15 16  1  0  0  0  0
 16  9  1  0  0  0  0
 17 15  1  0  0  0  0
 17 20  1  0  0  0  0
 18 17  1  0  0  0  0
 19 17  1  0  0  0  0
M  RAD  3   2   2   3   3   4   2
M  END
