Coordinates from ORCA-job PhN2+~CF3COO-_B3LYPG-6-31G_dp-CH-Scan-d09-49-n800
 OpenBabel11261919373D

 20 19  0  0  0  0  0  0  0  0999 V2000
   -1.3753    0.1443   -0.1345 C   0  0  0  0  0  0  0  0  0  0  0  0
   -2.7590    0.2594   -0.2684 N   0  0  0  0  0  0  0  0  0  0  0  0
   -3.8627    0.4155   -0.3688 N   0  0  0  0  0  0  0  0  0  0  0  0
   -0.7469    1.3883    0.0322 C   0  0  0  0  0  0  0  0  0  0  0  0
    0.6579    1.1842    0.1645 C   0  0  0  0  0  0  0  0  0  0  0  0
    1.2697   -0.0645    0.1297 C   0  0  0  0  0  0  0  0  0  0  0  0
    0.5217   -1.2559   -0.0463 C   0  0  0  0  0  0  0  0  0  0  0  0
   -0.8453   -1.1743   -0.1851 C   0  0  0  0  0  0  0  0  0  0  0  0
   -3.1863    4.7815    0.0528 H   0  0  0  0  0  0  0  0  0  0  0  0
    1.3028    2.0534    0.3031 H   0  0  0  0  0  0  0  0  0  0  0  0
    2.3504   -0.1449    0.2404 H   0  0  0  0  0  0  0  0  0  0  0  0
    1.0209   -2.2194   -0.0712 H   0  0  0  0  0  0  0  0  0  0  0  0
   -1.4715   -2.0517   -0.3234 H   0  0  0  0  0  0  0  0  0  0  0  0
   -4.9438    3.2497   -0.2754 O   0  0  0  0  0  0  0  0  0  0  0  0
   -5.0204    4.4475   -0.1819 C   0  0  0  0  0  0  0  0  0  0  0  0
   -4.0081    5.2997    0.0040 O   0  0  0  0  0  0  0  0  0  0  0  0
   -6.3528    5.2235   -0.2660 C   0  0  0  0  0  0  0  0  0  0  0  0
   -6.3255    6.0841   -1.2986 F   0  0  0  0  0  0  0  0  0  0  0  0
   -7.3690    4.3764   -0.4390 F   0  0  0  0  0  0  0  0  0  0  0  0
   -6.5582    5.9222    0.8637 F   0  0  0  0  0  0  0  0  0  0  0  0
  1  4  1  0  0  0  0
  2  1  1  0  0  0  0
  3  2  1  0  0  0  0
  4  5  2  0  0  0  0
  5 10  1  0  0  0  0
  6  5  1  0  0  0  0
  6 11  1  0  0  0  0
  7  6  2  0  0  0  0
  8  1  2  0  0  0  0
  8  7  1  0  0  0  0
 12  7  1  0  0  0  0
 13  8  1  0  0  0  0
 14 15  2  0  0  0  0
 15 16  1  0  0  0  0
 16  9  1  0  0  0  0
 17 15  1  0  0  0  0
 17 20  1  0  0  0  0
 18 17  1  0  0  0  0
 19 17  1  0  0  0  0
M  RAD  3   2   2   3   3   4   2
M  END
