Coordinates from ORCA-job PhN2+~CF3COO-_B3LYPG-6-31G_dp-CH-Scan-d09-49-n800
 OpenBabel11261919373D

 20 19  0  0  0  0  0  0  0  0999 V2000
   -1.2537    0.1326   -0.2215 C   0  0  0  0  0  0  0  0  0  0  0  0
   -2.6166    0.3304   -0.4462 N   0  0  0  0  0  0  0  0  0  0  0  0
   -3.6971    0.5587   -0.6297 N   0  0  0  0  0  0  0  0  0  0  0  0
   -0.5565    1.3426   -0.0856 C   0  0  0  0  0  0  0  0  0  0  0  0
    0.8222    1.0595    0.1438 C   0  0  0  0  0  0  0  0  0  0  0  0
    1.3508   -0.2250    0.2175 C   0  0  0  0  0  0  0  0  0  0  0  0
    0.5372   -1.3758    0.0616 C   0  0  0  0  0  0  0  0  0  0  0  0
   -0.8108   -1.2176   -0.1669 C   0  0  0  0  0  0  0  0  0  0  0  0
   -3.3129    5.1053   -0.1489 H   0  0  0  0  0  0  0  0  0  0  0  0
    1.5138    1.8935    0.2731 H   0  0  0  0  0  0  0  0  0  0  0  0
    2.4153   -0.3663    0.4002 H   0  0  0  0  0  0  0  0  0  0  0  0
    0.9725   -2.3682    0.1219 H   0  0  0  0  0  0  0  0  0  0  0  0
   -1.4843   -2.0607   -0.2960 H   0  0  0  0  0  0  0  0  0  0  0  0
   -4.9340    3.4143   -0.3387 O   0  0  0  0  0  0  0  0  0  0  0  0
   -5.1195    4.5976   -0.2206 C   0  0  0  0  0  0  0  0  0  0  0  0
   -4.1805    5.5438   -0.1153 O   0  0  0  0  0  0  0  0  0  0  0  0
   -6.5223    5.2404   -0.1671 C   0  0  0  0  0  0  0  0  0  0  0  0
   -6.6645    6.1344   -1.1607 F   0  0  0  0  0  0  0  0  0  0  0  0
   -7.4635    4.3032   -0.2935 F   0  0  0  0  0  0  0  0  0  0  0  0
   -6.6974    5.8761    1.0043 F   0  0  0  0  0  0  0  0  0  0  0  0
  1  8  2  0  0  0  0
  1  4  1  0  0  0  0
  2  1  1  0  0  0  0
  3  2  1  0  0  0  0
  4  5  2  0  0  0  0
  5  6  1  0  0  0  0
  5 10  1  0  0  0  0
  6 11  1  0  0  0  0
  7 12  1  0  0  0  0
  7  6  2  0  0  0  0
  8  7  1  0  0  0  0
  9 16  1  0  0  0  0
 13  8  1  0  0  0  0
 14 15  2  0  0  0  0
 15 17  1  0  0  0  0
 15 16  1  0  0  0  0
 17 20  1  0  0  0  0
 18 17  1  0  0  0  0
 19 17  1  0  0  0  0
M  RAD  3   2   2   3   3   4   2
M  END
