Coordinates from ORCA-job PhN2+~CF3COO-_B3LYPG-6-31G_dp-CH-Scan-d09-49-n800
 OpenBabel11261919373D

 20 19  0  0  0  0  0  0  0  0999 V2000
   -1.2939    0.1344   -0.1762 C   0  0  0  0  0  0  0  0  0  0  0  0
   -2.6671    0.3068   -0.3536 N   0  0  0  0  0  0  0  0  0  0  0  0
   -3.7589    0.5117   -0.4911 N   0  0  0  0  0  0  0  0  0  0  0  0
   -0.6186    1.3550   -0.0238 C   0  0  0  0  0  0  0  0  0  0  0  0
    0.7721    1.0957    0.1552 C   0  0  0  0  0  0  0  0  0  0  0  0
    1.3303   -0.1782    0.1724 C   0  0  0  0  0  0  0  0  0  0  0  0
    0.5371   -1.3416    0.0057 C   0  0  0  0  0  0  0  0  0  0  0  0
   -0.8205   -1.2066   -0.1765 C   0  0  0  0  0  0  0  0  0  0  0  0
   -3.2726    5.0194   -0.0424 H   0  0  0  0  0  0  0  0  0  0  0  0
    1.4495    1.9406    0.2896 H   0  0  0  0  0  0  0  0  0  0  0  0
    2.4028   -0.3012    0.3180 H   0  0  0  0  0  0  0  0  0  0  0  0
    0.9951   -2.3255    0.0215 H   0  0  0  0  0  0  0  0  0  0  0  0
   -1.4795   -2.0603   -0.3109 H   0  0  0  0  0  0  0  0  0  0  0  0
   -4.9260    3.3679   -0.3002 O   0  0  0  0  0  0  0  0  0  0  0  0
   -5.0861    4.5566   -0.1987 C   0  0  0  0  0  0  0  0  0  0  0  0
   -4.1297    5.4794   -0.0535 O   0  0  0  0  0  0  0  0  0  0  0  0
   -6.4729    5.2351   -0.2211 C   0  0  0  0  0  0  0  0  0  0  0  0
   -6.5489    6.1056   -1.2427 F   0  0  0  0  0  0  0  0  0  0  0  0
   -7.4318    4.3185   -0.3648 F   0  0  0  0  0  0  0  0  0  0  0  0
   -6.6819    5.9058    0.9248 F   0  0  0  0  0  0  0  0  0  0  0  0
  1  4  1  0  0  0  0
  2  1  1  0  0  0  0
  3  2  1  0  0  0  0
  4  5  2  0  0  0  0
  5  6  1  0  0  0  0
  5 10  1  0  0  0  0
  6 11  1  0  0  0  0
  7 12  1  0  0  0  0
  7  6  2  0  0  0  0
  8  1  2  0  0  0  0
  8  7  1  0  0  0  0
 13  8  1  0  0  0  0
 14 15  2  0  0  0  0
 15 16  1  0  0  0  0
 16  9  1  0  0  0  0
 17 15  1  0  0  0  0
 17 20  1  0  0  0  0
 18 17  1  0  0  0  0
 19 17  1  0  0  0  0
M  RAD  3   2   2   3   3   4   2
M  END
