Coordinates from ORCA-job PhN2+~CF3COO-_B3LYPG-6-31G_dp-CH-Scan-d09-49-n800
 OpenBabel11261919373D

 20 19  0  0  0  0  0  0  0  0999 V2000
   -1.6089    0.2097   -0.1551 C   0  0  0  0  0  0  0  0  0  0  0  0
   -2.9923    0.1631   -0.3049 N   0  0  0  0  0  0  0  0  0  0  0  0
   -4.1044    0.1777   -0.4211 N   0  0  0  0  0  0  0  0  0  0  0  0
   -1.1091    1.5134    0.0006 C   0  0  0  0  0  0  0  0  0  0  0  0
    0.3050    1.4663    0.1484 C   0  0  0  0  0  0  0  0  0  0  0  0
    1.0469    0.2890    0.1365 C   0  0  0  0  0  0  0  0  0  0  0  0
    0.4316   -0.9759   -0.0293 C   0  0  0  0  0  0  0  0  0  0  0  0
   -0.9351   -1.0420   -0.1814 C   0  0  0  0  0  0  0  0  0  0  0  0
   -2.9605    3.9845    0.0024 H   0  0  0  0  0  0  0  0  0  0  0  0
    0.8497    2.4016    0.2807 H   0  0  0  0  0  0  0  0  0  0  0  0
    2.1284    0.3271    0.2579 H   0  0  0  0  0  0  0  0  0  0  0  0
    1.0293   -1.8816   -0.0360 H   0  0  0  0  0  0  0  0  0  0  0  0
   -1.4619   -1.9834   -0.3127 H   0  0  0  0  0  0  0  0  0  0  0  0
   -5.0462    2.9094   -0.3164 O   0  0  0  0  0  0  0  0  0  0  0  0
   -4.8298    4.0896   -0.1931 C   0  0  0  0  0  0  0  0  0  0  0  0
   -3.6492    4.6757   -0.0142 O   0  0  0  0  0  0  0  0  0  0  0  0
   -5.9480    5.1548   -0.2257 C   0  0  0  0  0  0  0  0  0  0  0  0
   -5.7370    6.0240   -1.2299 F   0  0  0  0  0  0  0  0  0  0  0  0
   -7.1367    4.5737   -0.4047 F   0  0  0  0  0  0  0  0  0  0  0  0
   -5.9735    5.8420    0.9300 F   0  0  0  0  0  0  0  0  0  0  0  0
  1  4  1  0  0  0  0
  2  1  1  0  0  0  0
  3  2  1  0  0  0  0
  4  5  2  0  0  0  0
  5 10  1  0  0  0  0
  6  5  1  0  0  0  0
  6 11  1  0  0  0  0
  7  6  2  0  0  0  0
  8  1  2  0  0  0  0
  8  7  1  0  0  0  0
 12  7  1  0  0  0  0
 13  8  1  0  0  0  0
 14 15  2  0  0  0  0
 15 16  1  0  0  0  0
 16  9  1  0  0  0  0
 17 15  1  0  0  0  0
 17 20  1  0  0  0  0
 18 17  1  0  0  0  0
 19 17  1  0  0  0  0
M  RAD  3   2   2   3   3   4   2
M  END
