Coordinates from ORCA-job PhN2+~CF3COO-_B3LYPG-6-31G_dp-CH-Scan-d09-49-n800
 OpenBabel11261919373D

 20 19  0  0  0  0  0  0  0  0999 V2000
   -1.7132    0.2429   -0.1575 C   0  0  0  0  0  0  0  0  0  0  0  0
   -3.0915    0.1293   -0.3066 N   0  0  0  0  0  0  0  0  0  0  0  0
   -4.2029    0.0888   -0.4188 N   0  0  0  0  0  0  0  0  0  0  0  0
   -1.2667    1.5660    0.0007 C   0  0  0  0  0  0  0  0  0  0  0  0
    0.1462    1.5857    0.1472 C   0  0  0  0  0  0  0  0  0  0  0  0
    0.9406    0.4429    0.1323 C   0  0  0  0  0  0  0  0  0  0  0  0
    0.3825   -0.8471   -0.0350 C   0  0  0  0  0  0  0  0  0  0  0  0
   -0.9803   -0.9746   -0.1860 C   0  0  0  0  0  0  0  0  0  0  0  0
   -2.8809    3.6578    0.0045 H   0  0  0  0  0  0  0  0  0  0  0  0
    0.6461    2.5450    0.2805 H   0  0  0  0  0  0  0  0  0  0  0  0
    2.0191    0.5303    0.2525 H   0  0  0  0  0  0  0  0  0  0  0  0
    1.0197   -1.7254   -0.0439 H   0  0  0  0  0  0  0  0  0  0  0  0
   -1.4635   -1.9387   -0.3184 H   0  0  0  0  0  0  0  0  0  0  0  0
   -5.0727    2.7853   -0.3250 O   0  0  0  0  0  0  0  0  0  0  0  0
   -4.7396    3.9388   -0.1908 C   0  0  0  0  0  0  0  0  0  0  0  0
   -3.5142    4.4088   -0.0065 O   0  0  0  0  0  0  0  0  0  0  0  0
   -5.7546    5.1035   -0.2182 C   0  0  0  0  0  0  0  0  0  0  0  0
   -5.4700    5.9489   -1.2253 F   0  0  0  0  0  0  0  0  0  0  0  0
   -6.9949    4.6380   -0.3900 F   0  0  0  0  0  0  0  0  0  0  0  0
   -5.7109    5.7929    0.9361 F   0  0  0  0  0  0  0  0  0  0  0  0
  1  4  1  0  0  0  0
  2  1  1  0  0  0  0
  3  2  1  0  0  0  0
  4  5  2  0  0  0  0
  5 10  1  0  0  0  0
  6  5  1  0  0  0  0
  6 11  1  0  0  0  0
  7  6  2  0  0  0  0
  8  1  2  0  0  0  0
  8  7  1  0  0  0  0
 12  7  1  0  0  0  0
 13  8  1  0  0  0  0
 14 15  2  0  0  0  0
 15 16  1  0  0  0  0
 16  9  1  0  0  0  0
 17 15  1  0  0  0  0
 17 20  1  0  0  0  0
 18 17  1  0  0  0  0
 19 17  1  0  0  0  0
M  RAD  3   2   2   3   3   4   2
M  END
