Coordinates from ORCA-job PhN2+~CF3COO-_B3LYPG-6-31G_dp-CH-Scan-d09-49-n800
 OpenBabel11261919373D

 20 19  0  0  0  0  0  0  0  0999 V2000
   -1.2766    0.1323   -0.1907 C   0  0  0  0  0  0  0  0  0  0  0  0
   -2.6463    0.3156   -0.3834 N   0  0  0  0  0  0  0  0  0  0  0  0
   -3.7347    0.5300   -0.5332 N   0  0  0  0  0  0  0  0  0  0  0  0
   -0.5923    1.3484   -0.0430 C   0  0  0  0  0  0  0  0  0  0  0  0
    0.7943    1.0788    0.1524 C   0  0  0  0  0  0  0  0  0  0  0  0
    1.3410   -0.1997    0.1873 C   0  0  0  0  0  0  0  0  0  0  0  0
    0.5393   -1.3577    0.0233 C   0  0  0  0  0  0  0  0  0  0  0  0
   -0.8151   -1.2127   -0.1740 C   0  0  0  0  0  0  0  0  0  0  0  0
   -3.2908    5.0608   -0.0784 H   0  0  0  0  0  0  0  0  0  0  0  0
    1.4776    1.9190    0.2856 H   0  0  0  0  0  0  0  0  0  0  0  0
    2.4108   -0.3307    0.3449 H   0  0  0  0  0  0  0  0  0  0  0  0
    0.9885   -2.3454    0.0531 H   0  0  0  0  0  0  0  0  0  0  0  0
   -1.4802   -2.0618   -0.3072 H   0  0  0  0  0  0  0  0  0  0  0  0
   -4.9280    3.3904   -0.3115 O   0  0  0  0  0  0  0  0  0  0  0  0
   -5.1009    4.5768   -0.2059 C   0  0  0  0  0  0  0  0  0  0  0  0
   -4.1532    5.5108   -0.0750 O   0  0  0  0  0  0  0  0  0  0  0  0
   -6.4959    5.2386   -0.2039 C   0  0  0  0  0  0  0  0  0  0  0  0
   -6.5972    6.1154   -1.2178 F   0  0  0  0  0  0  0  0  0  0  0  0
   -7.4457    4.3115   -0.3403 F   0  0  0  0  0  0  0  0  0  0  0  0
   -6.6963    5.8986    0.9498 F   0  0  0  0  0  0  0  0  0  0  0  0
  1  8  2  0  0  0  0
  1  4  1  0  0  0  0
  2  1  1  0  0  0  0
  3  2  1  0  0  0  0
  4  5  2  0  0  0  0
  5  6  1  0  0  0  0
  5 10  1  0  0  0  0
  6 11  1  0  0  0  0
  7 12  1  0  0  0  0
  7  6  2  0  0  0  0
  8  7  1  0  0  0  0
  9 16  1  0  0  0  0
 13  8  1  0  0  0  0
 14 15  2  0  0  0  0
 15 17  1  0  0  0  0
 15 16  1  0  0  0  0
 17 20  1  0  0  0  0
 18 17  1  0  0  0  0
 19 17  1  0  0  0  0
M  RAD  3   2   2   3   3   4   2
M  END
