Coordinates from ORCA-job PhN2+~CF3COO-_B3LYPG-6-31G_dp-CH-Scan-d09-49-n800
 OpenBabel11261919373D

 20 19  0  0  0  0  0  0  0  0999 V2000
   -1.3612    0.1420   -0.1396 C   0  0  0  0  0  0  0  0  0  0  0  0
   -2.7435    0.2674   -0.2792 N   0  0  0  0  0  0  0  0  0  0  0  0
   -3.8456    0.4323   -0.3842 N   0  0  0  0  0  0  0  0  0  0  0  0
   -0.7246    1.3819    0.0267 C   0  0  0  0  0  0  0  0  0  0  0  0
    0.6781    1.1678    0.1651 C   0  0  0  0  0  0  0  0  0  0  0  0
    1.2809   -0.0855    0.1356 C   0  0  0  0  0  0  0  0  0  0  0  0
    0.5250   -1.2718   -0.0408 C   0  0  0  0  0  0  0  0  0  0  0  0
   -0.8408   -1.1806   -0.1853 C   0  0  0  0  0  0  0  0  0  0  0  0
   -3.2008    4.8288    0.0411 H   0  0  0  0  0  0  0  0  0  0  0  0
    1.3289    2.0325    0.3043 H   0  0  0  0  0  0  0  0  0  0  0  0
    2.3606   -0.1735    0.2509 H   0  0  0  0  0  0  0  0  0  0  0  0
    1.0172   -2.2389   -0.0615 H   0  0  0  0  0  0  0  0  0  0  0  0
   -1.4728   -2.0537   -0.3242 H   0  0  0  0  0  0  0  0  0  0  0  0
   -4.9371    3.2719   -0.2768 O   0  0  0  0  0  0  0  0  0  0  0  0
   -5.0311    4.4685   -0.1832 C   0  0  0  0  0  0  0  0  0  0  0  0
   -4.0301    5.3354   -0.0032 O   0  0  0  0  0  0  0  0  0  0  0  0
   -6.3750    5.2250   -0.2608 C   0  0  0  0  0  0  0  0  0  0  0  0
   -6.3669    6.0819   -1.2969 F   0  0  0  0  0  0  0  0  0  0  0  0
   -7.3800    4.3627   -0.4238 F   0  0  0  0  0  0  0  0  0  0  0  0
   -6.5827    5.9250    0.8676 F   0  0  0  0  0  0  0  0  0  0  0  0
  1  4  1  0  0  0  0
  2  1  1  0  0  0  0
  3  2  1  0  0  0  0
  4  5  2  0  0  0  0
  5 10  1  0  0  0  0
  6  5  1  0  0  0  0
  6 11  1  0  0  0  0
  7  6  2  0  0  0  0
  8  1  2  0  0  0  0
  8  7  1  0  0  0  0
 12  7  1  0  0  0  0
 13  8  1  0  0  0  0
 14 15  2  0  0  0  0
 15 16  1  0  0  0  0
 16  9  1  0  0  0  0
 17 15  1  0  0  0  0
 17 20  1  0  0  0  0
 18 17  1  0  0  0  0
 19 17  1  0  0  0  0
M  RAD  3   2   2   3   3   4   2
M  END
