Coordinates from ORCA-job PhN2+~CF3COO-_B3LYPG-6-31G_dp-CH-Scan-d09-49-n800
 OpenBabel11261919373D

 20 19  0  0  0  0  0  0  0  0999 V2000
   -1.9513    0.3331   -0.1964 C   0  0  0  0  0  0  0  0  0  0  0  0
   -3.3095    0.0908   -0.3735 N   0  0  0  0  0  0  0  0  0  0  0  0
   -4.4135   -0.0022   -0.5072 N   0  0  0  0  0  0  0  0  0  0  0  0
   -1.6072    1.6867   -0.0532 C   0  0  0  0  0  0  0  0  0  0  0  0
   -0.2158    1.8503    0.1245 C   0  0  0  0  0  0  0  0  0  0  0  0
    0.6790    0.7822    0.1504 C   0  0  0  0  0  0  0  0  0  0  0  0
    0.2402   -0.5503   -0.0030 C   0  0  0  0  0  0  0  0  0  0  0  0
   -1.1043   -0.8020   -0.1822 C   0  0  0  0  0  0  0  0  0  0  0  0
   -2.6158    2.9297   -0.0744 H   0  0  0  0  0  0  0  0  0  0  0  0
    0.1786    2.8569    0.2486 H   0  0  0  0  0  0  0  0  0  0  0  0
    1.7408    0.9703    0.2928 H   0  0  0  0  0  0  0  0  0  0  0  0
    0.9504   -1.3700    0.0202 H   0  0  0  0  0  0  0  0  0  0  0  0
   -1.4950   -1.8075   -0.3053 H   0  0  0  0  0  0  0  0  0  0  0  0
   -5.0630    2.5398   -0.3079 O   0  0  0  0  0  0  0  0  0  0  0  0
   -4.4927    3.6145   -0.1877 C   0  0  0  0  0  0  0  0  0  0  0  0
   -3.2235    3.8536   -0.0687 O   0  0  0  0  0  0  0  0  0  0  0  0
   -5.3143    4.9275   -0.1663 C   0  0  0  0  0  0  0  0  0  0  0  0
   -4.9561    5.7277   -1.1914 F   0  0  0  0  0  0  0  0  0  0  0  0
   -6.6276    4.6835   -0.2678 F   0  0  0  0  0  0  0  0  0  0  0  0
   -5.1010    5.6042    0.9805 F   0  0  0  0  0  0  0  0  0  0  0  0
  1  8  2  0  0  0  0
  1  4  1  0  0  0  0
  2  1  1  0  0  0  0
  3  2  1  0  0  0  0
  4  5  2  0  0  0  0
  5  6  1  0  0  0  0
  5 10  1  0  0  0  0
  6 11  1  0  0  0  0
  7 12  1  0  0  0  0
  7  6  2  0  0  0  0
  8  7  1  0  0  0  0
  9 16  1  0  0  0  0
 13  8  1  0  0  0  0
 14 15  2  0  0  0  0
 15 17  1  0  0  0  0
 15 16  1  0  0  0  0
 17 20  1  0  0  0  0
 18 17  1  0  0  0  0
 19 17  1  0  0  0  0
M  RAD  3   2   2   3   3   4   2
M  END
