Coordinates from ORCA-job PhN2+~CF3COO-_B3LYPG-6-31G_dp-CH-Scan-d09-49-n800
 OpenBabel11261919373D

 20 19  0  0  0  0  0  0  0  0999 V2000
   -1.4292    0.1533   -0.1398 C   0  0  0  0  0  0  0  0  0  0  0  0
   -2.8149    0.2269   -0.2780 N   0  0  0  0  0  0  0  0  0  0  0  0
   -3.9224    0.3487   -0.3833 N   0  0  0  0  0  0  0  0  0  0  0  0
   -0.8347    1.4156    0.0152 C   0  0  0  0  0  0  0  0  0  0  0  0
    0.5745    1.2527    0.1514 C   0  0  0  0  0  0  0  0  0  0  0  0
    1.2210    0.0211    0.1299 C   0  0  0  0  0  0  0  0  0  0  0  0
    0.5068   -1.1922   -0.0349 C   0  0  0  0  0  0  0  0  0  0  0  0
   -0.8618   -1.1501   -0.1763 C   0  0  0  0  0  0  0  0  0  0  0  0
   -3.1278    4.5810    0.0362 H   0  0  0  0  0  0  0  0  0  0  0  0
    1.1946    2.1409    0.2820 H   0  0  0  0  0  0  0  0  0  0  0  0
    2.3033   -0.0278    0.2426 H   0  0  0  0  0  0  0  0  0  0  0  0
    1.0325   -2.1417   -0.0494 H   0  0  0  0  0  0  0  0  0  0  0  0
   -1.4630   -2.0461   -0.3063 H   0  0  0  0  0  0  0  0  0  0  0  0
   -4.9803    3.1622   -0.2927 O   0  0  0  0  0  0  0  0  0  0  0  0
   -4.9807    4.3620   -0.1887 C   0  0  0  0  0  0  0  0  0  0  0  0
   -3.9174    5.1480   -0.0024 O   0  0  0  0  0  0  0  0  0  0  0  0
   -6.2632    5.2195   -0.2544 C   0  0  0  0  0  0  0  0  0  0  0  0
   -6.1783    6.1101   -1.2580 F   0  0  0  0  0  0  0  0  0  0  0  0
   -7.3283    4.4423   -0.4582 F   0  0  0  0  0  0  0  0  0  0  0  0
   -6.4320    5.8927    0.8970 F   0  0  0  0  0  0  0  0  0  0  0  0
  1  4  1  0  0  0  0
  2  1  1  0  0  0  0
  3  2  1  0  0  0  0
  4  5  2  0  0  0  0
  5 10  1  0  0  0  0
  6  5  1  0  0  0  0
  6 11  1  0  0  0  0
  7  6  2  0  0  0  0
  8  1  2  0  0  0  0
  8  7  1  0  0  0  0
 12  7  1  0  0  0  0
 13  8  1  0  0  0  0
 14 15  2  0  0  0  0
 15 16  1  0  0  0  0
 16  9  1  0  0  0  0
 17 15  1  0  0  0  0
 17 20  1  0  0  0  0
 18 17  1  0  0  0  0
 19 17  1  0  0  0  0
M  RAD  3   2   2   3   3   4   2
M  END
