Coordinates from ORCA-job PhN2+~CF3COO-_B3LYPG-6-31G_dp-CH-Scan-d09-49-n800
 OpenBabel11261919373D

 20 19  0  0  0  0  0  0  0  0999 V2000
   -1.7049    0.2404   -0.1565 C   0  0  0  0  0  0  0  0  0  0  0  0
   -3.0840    0.1323   -0.3047 N   0  0  0  0  0  0  0  0  0  0  0  0
   -4.1953    0.0956   -0.4185 N   0  0  0  0  0  0  0  0  0  0  0  0
   -1.2541    1.5617    0.0020 C   0  0  0  0  0  0  0  0  0  0  0  0
    0.1591    1.5764    0.1479 C   0  0  0  0  0  0  0  0  0  0  0  0
    0.9495    0.4307    0.1320 C   0  0  0  0  0  0  0  0  0  0  0  0
    0.3867   -0.8573   -0.0356 C   0  0  0  0  0  0  0  0  0  0  0  0
   -0.9767   -0.9799   -0.1860 C   0  0  0  0  0  0  0  0  0  0  0  0
   -2.8877    3.6828    0.0069 H   0  0  0  0  0  0  0  0  0  0  0  0
    0.6625    2.5337    0.2814 H   0  0  0  0  0  0  0  0  0  0  0  0
    2.0283    0.5142    0.2517 H   0  0  0  0  0  0  0  0  0  0  0  0
    1.0208   -1.7378   -0.0453 H   0  0  0  0  0  0  0  0  0  0  0  0
   -1.4634   -1.9421   -0.3186 H   0  0  0  0  0  0  0  0  0  0  0  0
   -5.0715    2.7943   -0.3241 O   0  0  0  0  0  0  0  0  0  0  0  0
   -4.7470    3.9503   -0.1903 C   0  0  0  0  0  0  0  0  0  0  0  0
   -3.5249    4.4294   -0.0050 O   0  0  0  0  0  0  0  0  0  0  0  0
   -5.7700    5.1080   -0.2198 C   0  0  0  0  0  0  0  0  0  0  0  0
   -5.4903    5.9540   -1.2276 F   0  0  0  0  0  0  0  0  0  0  0  0
   -7.0068    4.6335   -0.3919 F   0  0  0  0  0  0  0  0  0  0  0  0
   -5.7317    5.7988    0.9338 F   0  0  0  0  0  0  0  0  0  0  0  0
  1  4  1  0  0  0  0
  2  1  1  0  0  0  0
  3  2  1  0  0  0  0
  4  5  2  0  0  0  0
  5 10  1  0  0  0  0
  6  5  1  0  0  0  0
  6 11  1  0  0  0  0
  7  6  2  0  0  0  0
  8  1  2  0  0  0  0
  8  7  1  0  0  0  0
 12  7  1  0  0  0  0
 13  8  1  0  0  0  0
 14 15  2  0  0  0  0
 15 16  1  0  0  0  0
 16  9  1  0  0  0  0
 17 15  1  0  0  0  0
 17 20  1  0  0  0  0
 18 17  1  0  0  0  0
 19 17  1  0  0  0  0
M  RAD  3   2   2   3   3   4   2
M  END
