Coordinates from ORCA-job PhN2+~CF3COO-_B3LYPG-6-31G_dp-CH-Scan-d09-49-n800
 OpenBabel11261919373D

 20 19  0  0  0  0  0  0  0  0999 V2000
   -1.6366    0.2182   -0.1528 C   0  0  0  0  0  0  0  0  0  0  0  0
   -3.0192    0.1536   -0.3001 N   0  0  0  0  0  0  0  0  0  0  0  0
   -4.1312    0.1530   -0.4170 N   0  0  0  0  0  0  0  0  0  0  0  0
   -1.1513    1.5267    0.0078 C   0  0  0  0  0  0  0  0  0  0  0  0
    0.2629    1.4979    0.1533 C   0  0  0  0  0  0  0  0  0  0  0  0
    1.0196    0.3300    0.1347 C   0  0  0  0  0  0  0  0  0  0  0  0
    0.4199   -0.9416   -0.0356 C   0  0  0  0  0  0  0  0  0  0  0  0
   -0.9463   -1.0243   -0.1856 C   0  0  0  0  0  0  0  0  0  0  0  0
   -2.9401    3.8947    0.0053 H   0  0  0  0  0  0  0  0  0  0  0  0
    0.7954    2.4395    0.2889 H   0  0  0  0  0  0  0  0  0  0  0  0
    2.1006    0.3813    0.2544 H   0  0  0  0  0  0  0  0  0  0  0  0
    1.0287   -1.8397   -0.0473 H   0  0  0  0  0  0  0  0  0  0  0  0
   -1.4612   -1.9717   -0.3200 H   0  0  0  0  0  0  0  0  0  0  0  0
   -5.0564    2.8747   -0.3175 O   0  0  0  0  0  0  0  0  0  0  0  0
   -4.8072    4.0487   -0.1914 C   0  0  0  0  0  0  0  0  0  0  0  0
   -3.6131    4.6029   -0.0095 O   0  0  0  0  0  0  0  0  0  0  0  0
   -5.8970    5.1431   -0.2262 C   0  0  0  0  0  0  0  0  0  0  0  0
   -5.6671    5.9997   -1.2372 F   0  0  0  0  0  0  0  0  0  0  0  0
   -7.1019    4.5932   -0.3970 F   0  0  0  0  0  0  0  0  0  0  0  0
   -5.9002    5.8387    0.9247 F   0  0  0  0  0  0  0  0  0  0  0  0
  1  4  1  0  0  0  0
  2  1  1  0  0  0  0
  3  2  1  0  0  0  0
  4  5  2  0  0  0  0
  5 10  1  0  0  0  0
  6  5  1  0  0  0  0
  6 11  1  0  0  0  0
  7  6  2  0  0  0  0
  8  1  2  0  0  0  0
  8  7  1  0  0  0  0
 12  7  1  0  0  0  0
 13  8  1  0  0  0  0
 14 15  2  0  0  0  0
 15 16  1  0  0  0  0
 16  9  1  0  0  0  0
 17 15  1  0  0  0  0
 17 20  1  0  0  0  0
 18 17  1  0  0  0  0
 19 17  1  0  0  0  0
M  RAD  3   2   2   3   3   4   2
M  END
