Coordinates from ORCA-job PhN2+~CF3COO-_B3LYPG-6-31G_dp-CH-Scan-d09-49-n800
 OpenBabel11261919373D

 20 19  0  0  0  0  0  0  0  0999 V2000
   -1.4784    0.1654   -0.1445 C   0  0  0  0  0  0  0  0  0  0  0  0
   -2.8646    0.2033   -0.2863 N   0  0  0  0  0  0  0  0  0  0  0  0
   -3.9743    0.2940   -0.3976 N   0  0  0  0  0  0  0  0  0  0  0  0
   -0.9123    1.4417    0.0047 C   0  0  0  0  0  0  0  0  0  0  0  0
    0.4996    1.3131    0.1446 C   0  0  0  0  0  0  0  0  0  0  0  0
    1.1748    0.0968    0.1313 C   0  0  0  0  0  0  0  0  0  0  0  0
    0.4894   -1.1335   -0.0280 C   0  0  0  0  0  0  0  0  0  0  0  0
   -0.8795   -1.1241   -0.1723 C   0  0  0  0  0  0  0  0  0  0  0  0
   -3.0779    4.4090    0.0190 H   0  0  0  0  0  0  0  0  0  0  0  0
    1.0982    2.2163    0.2716 H   0  0  0  0  0  0  0  0  0  0  0  0
    2.2576    0.0741    0.2465 H   0  0  0  0  0  0  0  0  0  0  0  0
    1.0369   -2.0706   -0.0359 H   0  0  0  0  0  0  0  0  0  0  0  0
   -1.4593   -2.0346   -0.2983 H   0  0  0  0  0  0  0  0  0  0  0  0
   -5.0056    3.0880   -0.3037 O   0  0  0  0  0  0  0  0  0  0  0  0
   -4.9419    4.2858   -0.1937 C   0  0  0  0  0  0  0  0  0  0  0  0
   -3.8392    5.0146   -0.0112 O   0  0  0  0  0  0  0  0  0  0  0  0
   -6.1791    5.2085   -0.2437 C   0  0  0  0  0  0  0  0  0  0  0  0
   -6.0490    6.1131   -1.2297 F   0  0  0  0  0  0  0  0  0  0  0  0
   -7.2829    4.4910   -0.4616 F   0  0  0  0  0  0  0  0  0  0  0  0
   -6.3140    5.8672    0.9208 F   0  0  0  0  0  0  0  0  0  0  0  0
  1  4  1  0  0  0  0
  2  1  1  0  0  0  0
  3  2  1  0  0  0  0
  4  5  2  0  0  0  0
  5 10  1  0  0  0  0
  6  5  1  0  0  0  0
  6 11  1  0  0  0  0
  7  6  2  0  0  0  0
  8  1  2  0  0  0  0
  8  7  1  0  0  0  0
 12  7  1  0  0  0  0
 13  8  1  0  0  0  0
 14 15  2  0  0  0  0
 15 16  1  0  0  0  0
 16  9  1  0  0  0  0
 17 15  1  0  0  0  0
 17 20  1  0  0  0  0
 18 17  1  0  0  0  0
 19 17  1  0  0  0  0
M  RAD  3   2   2   3   3   4   2
M  END
