Coordinates from ORCA-job PhN2+~CF3COO-_B3LYPG-6-31G_dp-CH-Scan-d09-49-n800
 OpenBabel11261919373D

 20 19  0  0  0  0  0  0  0  0999 V2000
   -1.5371    0.1851   -0.1505 C   0  0  0  0  0  0  0  0  0  0  0  0
   -2.9226    0.1846   -0.2972 N   0  0  0  0  0  0  0  0  0  0  0  0
   -4.0341    0.2400   -0.4108 N   0  0  0  0  0  0  0  0  0  0  0  0
   -1.0010    1.4745   -0.0006 C   0  0  0  0  0  0  0  0  0  0  0  0
    0.4125    1.3825    0.1440 C   0  0  0  0  0  0  0  0  0  0  0  0
    1.1178    0.1832    0.1345 C   0  0  0  0  0  0  0  0  0  0  0  0
    0.4637   -1.0636   -0.0256 C   0  0  0  0  0  0  0  0  0  0  0  0
   -0.9046   -1.0882   -0.1744 C   0  0  0  0  0  0  0  0  0  0  0  0
   -3.0210    4.2195    0.0055 H   0  0  0  0  0  0  0  0  0  0  0  0
    0.9872    2.3007    0.2718 H   0  0  0  0  0  0  0  0  0  0  0  0
    2.2004    0.1879    0.2533 H   0  0  0  0  0  0  0  0  0  0  0  0
    1.0340   -1.9869   -0.0305 H   0  0  0  0  0  0  0  0  0  0  0  0
   -1.4608   -2.0132   -0.3012 H   0  0  0  0  0  0  0  0  0  0  0  0
   -5.0226    3.0051   -0.3105 O   0  0  0  0  0  0  0  0  0  0  0  0
   -4.8906    4.1976   -0.1956 C   0  0  0  0  0  0  0  0  0  0  0  0
   -3.7503    4.8644   -0.0182 O   0  0  0  0  0  0  0  0  0  0  0  0
   -6.0771    5.1854   -0.2333 C   0  0  0  0  0  0  0  0  0  0  0  0
   -5.9088    6.0829   -1.2202 F   0  0  0  0  0  0  0  0  0  0  0  0
   -7.2201    4.5282   -0.4411 F   0  0  0  0  0  0  0  0  0  0  0  0
   -6.1663    5.8495    0.9326 F   0  0  0  0  0  0  0  0  0  0  0  0
  1  4  1  0  0  0  0
  2  1  1  0  0  0  0
  3  2  1  0  0  0  0
  4  5  2  0  0  0  0
  5 10  1  0  0  0  0
  6  5  1  0  0  0  0
  6 11  1  0  0  0  0
  7  6  2  0  0  0  0
  8  1  2  0  0  0  0
  8  7  1  0  0  0  0
 12  7  1  0  0  0  0
 13  8  1  0  0  0  0
 14 15  2  0  0  0  0
 15 16  1  0  0  0  0
 16  9  1  0  0  0  0
 17 15  1  0  0  0  0
 17 20  1  0  0  0  0
 18 17  1  0  0  0  0
 19 17  1  0  0  0  0
M  RAD  3   2   2   3   3   4   2
M  END
