Coordinates from ORCA-job PhN2+~CF3COO-_B3LYPG-6-31G_dp-CH-Scan-d09-49-n800
 OpenBabel11261919373D

 20 19  0  0  0  0  0  0  0  0999 V2000
   -1.5782    0.1998   -0.1551 C   0  0  0  0  0  0  0  0  0  0  0  0
   -2.9624    0.1730   -0.3063 N   0  0  0  0  0  0  0  0  0  0  0  0
   -4.0751    0.2041   -0.4151 N   0  0  0  0  0  0  0  0  0  0  0  0
   -1.0628    1.4974   -0.0013 C   0  0  0  0  0  0  0  0  0  0  0  0
    0.3509    1.4308    0.1470 C   0  0  0  0  0  0  0  0  0  0  0  0
    1.0770    0.2438    0.1375 C   0  0  0  0  0  0  0  0  0  0  0  0
    0.4451   -1.0135   -0.0265 C   0  0  0  0  0  0  0  0  0  0  0  0
   -0.9223   -1.0615   -0.1792 C   0  0  0  0  0  0  0  0  0  0  0  0
   -2.9846    4.0847   -0.0011 H   0  0  0  0  0  0  0  0  0  0  0  0
    0.9087    2.3588    0.2776 H   0  0  0  0  0  0  0  0  0  0  0  0
    2.1589    0.2674    0.2594 H   0  0  0  0  0  0  0  0  0  0  0  0
    1.0309   -1.9269   -0.0315 H   0  0  0  0  0  0  0  0  0  0  0  0
   -1.4617   -1.9959   -0.3094 H   0  0  0  0  0  0  0  0  0  0  0  0
   -5.0358    2.9490   -0.3129 O   0  0  0  0  0  0  0  0  0  0  0  0
   -4.8552    4.1354   -0.1953 C   0  0  0  0  0  0  0  0  0  0  0  0
   -3.6906    4.7566   -0.0212 O   0  0  0  0  0  0  0  0  0  0  0  0
   -6.0035    5.1678   -0.2274 C   0  0  0  0  0  0  0  0  0  0  0  0
   -5.8127    6.0500   -1.2241 F   0  0  0  0  0  0  0  0  0  0  0  0
   -7.1735    4.5533   -0.4167 F   0  0  0  0  0  0  0  0  0  0  0  0
   -6.0545    5.8451    0.9333 F   0  0  0  0  0  0  0  0  0  0  0  0
  1  4  1  0  0  0  0
  2  1  1  0  0  0  0
  3  2  1  0  0  0  0
  4  5  2  0  0  0  0
  5 10  1  0  0  0  0
  6  5  1  0  0  0  0
  6 11  1  0  0  0  0
  7  6  2  0  0  0  0
  8  1  2  0  0  0  0
  8  7  1  0  0  0  0
 12  7  1  0  0  0  0
 13  8  1  0  0  0  0
 14 15  2  0  0  0  0
 15 16  1  0  0  0  0
 16  9  1  0  0  0  0
 17 15  1  0  0  0  0
 17 20  1  0  0  0  0
 18 17  1  0  0  0  0
 19 17  1  0  0  0  0
M  RAD  3   2   2   3   3   4   2
M  END
