Coordinates from ORCA-job PhN2+~CF3COO-_B3LYPG-6-31G_dp-CH-Scan-d09-49-n800
 OpenBabel11261919373D

 20 19  0  0  0  0  0  0  0  0999 V2000
   -1.2887    0.1339   -0.1801 C   0  0  0  0  0  0  0  0  0  0  0  0
   -2.6609    0.3094   -0.3616 N   0  0  0  0  0  0  0  0  0  0  0  0
   -3.7519    0.5168   -0.5027 N   0  0  0  0  0  0  0  0  0  0  0  0
   -0.6105    1.3531   -0.0291 C   0  0  0  0  0  0  0  0  0  0  0  0
    0.7790    1.0905    0.1543 C   0  0  0  0  0  0  0  0  0  0  0  0
    1.3337   -0.1849    0.1764 C   0  0  0  0  0  0  0  0  0  0  0  0
    0.5378   -1.3465    0.0105 C   0  0  0  0  0  0  0  0  0  0  0  0
   -0.8189   -1.2083   -0.1757 C   0  0  0  0  0  0  0  0  0  0  0  0
   -3.2781    5.0323   -0.0520 H   0  0  0  0  0  0  0  0  0  0  0  0
    1.4583    1.9339    0.2883 H   0  0  0  0  0  0  0  0  0  0  0  0
    2.4054   -0.3104    0.3252 H   0  0  0  0  0  0  0  0  0  0  0  0
    0.9931   -2.3316    0.0302 H   0  0  0  0  0  0  0  0  0  0  0  0
   -1.4798   -2.0606   -0.3096 H   0  0  0  0  0  0  0  0  0  0  0  0
   -4.9267    3.3747   -0.3032 O   0  0  0  0  0  0  0  0  0  0  0  0
   -5.0906    4.5627   -0.2007 C   0  0  0  0  0  0  0  0  0  0  0  0
   -4.1369    5.4890   -0.0592 O   0  0  0  0  0  0  0  0  0  0  0  0
   -6.4799    5.2361   -0.2165 C   0  0  0  0  0  0  0  0  0  0  0  0
   -6.5631    6.1084   -1.2361 F   0  0  0  0  0  0  0  0  0  0  0  0
   -7.4360    4.3163   -0.3583 F   0  0  0  0  0  0  0  0  0  0  0  0
   -6.6870    5.9039    0.9315 F   0  0  0  0  0  0  0  0  0  0  0  0
  1  8  2  0  0  0  0
  1  4  1  0  0  0  0
  2  1  1  0  0  0  0
  3  2  1  0  0  0  0
  4  5  2  0  0  0  0
  5  6  1  0  0  0  0
  5 10  1  0  0  0  0
  6 11  1  0  0  0  0
  7 12  1  0  0  0  0
  7  6  2  0  0  0  0
  8  7  1  0  0  0  0
 13  8  1  0  0  0  0
 14 15  2  0  0  0  0
 15 16  1  0  0  0  0
 16  9  1  0  0  0  0
 17 15  1  0  0  0  0
 17 20  1  0  0  0  0
 18 17  1  0  0  0  0
 19 17  1  0  0  0  0
M  RAD  3   2   2   3   3   4   2
M  END
