Coordinates from ORCA-job PhN2+~CF3COO-_B3LYPG-6-31G_dp-CH-Scan-d09-49-n800
 OpenBabel11261919373D

 20 19  0  0  0  0  0  0  0  0999 V2000
   -1.8340    0.2849   -0.1690 C   0  0  0  0  0  0  0  0  0  0  0  0
   -3.2028    0.0986   -0.3246 N   0  0  0  0  0  0  0  0  0  0  0  0
   -4.3092    0.0050   -0.4454 N   0  0  0  0  0  0  0  0  0  0  0  0
   -1.4457    1.6276   -0.0192 C   0  0  0  0  0  0  0  0  0  0  0  0
   -0.0388    1.7197    0.1346 C   0  0  0  0  0  0  0  0  0  0  0  0
    0.8103    0.6161    0.1336 C   0  0  0  0  0  0  0  0  0  0  0  0
    0.3151   -0.6988   -0.0254 C   0  0  0  0  0  0  0  0  0  0  0  0
   -1.0398   -0.8922   -0.1824 C   0  0  0  0  0  0  0  0  0  0  0  0
   -2.7750    3.3130   -0.0217 H   0  0  0  0  0  0  0  0  0  0  0  0
    0.4101    2.7038    0.2623 H   0  0  0  0  0  0  0  0  0  0  0  0
    1.8822    0.7573    0.2585 H   0  0  0  0  0  0  0  0  0  0  0  0
    0.9925   -1.5464   -0.0232 H   0  0  0  0  0  0  0  0  0  0  0  0
   -1.4751   -1.8793   -0.3089 H   0  0  0  0  0  0  0  0  0  0  0  0
   -5.0706    2.6586   -0.3386 O   0  0  0  0  0  0  0  0  0  0  0  0
   -4.6197    3.7744   -0.1933 C   0  0  0  0  0  0  0  0  0  0  0  0
   -3.3628    4.1252   -0.0188 O   0  0  0  0  0  0  0  0  0  0  0  0
   -5.5297    5.0243   -0.1961 C   0  0  0  0  0  0  0  0  0  0  0  0
   -5.1837    5.8560   -1.1969 F   0  0  0  0  0  0  0  0  0  0  0  0
   -6.8102    4.6758   -0.3587 F   0  0  0  0  0  0  0  0  0  0  0  0
   -5.4147    5.6953    0.9652 F   0  0  0  0  0  0  0  0  0  0  0  0
  1  4  1  0  0  0  0
  2  1  1  0  0  0  0
  3  2  1  0  0  0  0
  4  5  2  0  0  0  0
  5 10  1  0  0  0  0
  6  5  1  0  0  0  0
  6 11  1  0  0  0  0
  7 12  1  0  0  0  0
  7  6  2  0  0  0  0
  8  1  2  0  0  0  0
  8  7  1  0  0  0  0
  9 16  1  0  0  0  0
 13  8  1  0  0  0  0
 14 15  2  0  0  0  0
 15 16  1  0  0  0  0
 17 15  1  0  0  0  0
 17 20  1  0  0  0  0
 18 17  1  0  0  0  0
 19 17  1  0  0  0  0
M  RAD  3   2   2   3   3   4   2
M  END
