Coordinates from ORCA-job PhN2+~CF3COO-_B3LYPG-6-31G_dp-CH-Scan-d09-49-n800
 OpenBabel11261919373D

 20 19  0  0  0  0  0  0  0  0999 V2000
   -1.5952    0.2049   -0.1541 C   0  0  0  0  0  0  0  0  0  0  0  0
   -2.9790    0.1666   -0.3029 N   0  0  0  0  0  0  0  0  0  0  0  0
   -4.0910    0.1893   -0.4209 N   0  0  0  0  0  0  0  0  0  0  0  0
   -1.0885    1.5061   -0.0003 C   0  0  0  0  0  0  0  0  0  0  0  0
    0.3256    1.4504    0.1468 C   0  0  0  0  0  0  0  0  0  0  0  0
    1.0606    0.2689    0.1358 C   0  0  0  0  0  0  0  0  0  0  0  0
    0.4379   -0.9928   -0.0281 C   0  0  0  0  0  0  0  0  0  0  0  0
   -0.9292   -1.0512   -0.1794 C   0  0  0  0  0  0  0  0  0  0  0  0
   -2.9712    4.0289    0.0031 H   0  0  0  0  0  0  0  0  0  0  0  0
    0.8762    2.3826    0.2777 H   0  0  0  0  0  0  0  0  0  0  0  0
    2.1424    0.3006    0.2566 H   0  0  0  0  0  0  0  0  0  0  0  0
    1.0304   -1.9020   -0.0341 H   0  0  0  0  0  0  0  0  0  0  0  0
   -1.4616   -1.9896   -0.3092 H   0  0  0  0  0  0  0  0  0  0  0  0
   -5.0416    2.9276   -0.3156 O   0  0  0  0  0  0  0  0  0  0  0  0
   -4.8415    4.1104   -0.1936 C   0  0  0  0  0  0  0  0  0  0  0  0
   -3.6680    4.7117   -0.0146 O   0  0  0  0  0  0  0  0  0  0  0  0
   -5.9731    5.1612   -0.2270 C   0  0  0  0  0  0  0  0  0  0  0  0
   -5.7693    6.0371   -1.2267 F   0  0  0  0  0  0  0  0  0  0  0  0
   -7.1533    4.5653   -0.4132 F   0  0  0  0  0  0  0  0  0  0  0  0
   -6.0120    5.8429    0.9315 F   0  0  0  0  0  0  0  0  0  0  0  0
  1  4  1  0  0  0  0
  2  1  1  0  0  0  0
  3  2  1  0  0  0  0
  4  5  2  0  0  0  0
  5 10  1  0  0  0  0
  6  5  1  0  0  0  0
  6 11  1  0  0  0  0
  7  6  2  0  0  0  0
  8  1  2  0  0  0  0
  8  7  1  0  0  0  0
 12  7  1  0  0  0  0
 13  8  1  0  0  0  0
 14 15  2  0  0  0  0
 15 16  1  0  0  0  0
 16  9  1  0  0  0  0
 17 15  1  0  0  0  0
 17 20  1  0  0  0  0
 18 17  1  0  0  0  0
 19 17  1  0  0  0  0
M  RAD  3   2   2   3   3   4   2
M  END
