Coordinates from ORCA-job PhN2+~CF3COO-_B3LYPG-6-31G_dp-CH-Scan-d09-49-n800
 OpenBabel11261919373D

 20 19  0  0  0  0  0  0  0  0999 V2000
   -2.0587    0.6311   -0.1731 C   0  0  0  0  0  0  0  0  0  0  0  0
   -3.4530    0.4504   -0.3309 N   0  0  0  0  0  0  0  0  0  0  0  0
   -4.3869   -0.1510   -0.4772 N   0  0  0  0  0  0  0  0  0  0  0  0
   -1.4613    1.8896   -0.2157 C   0  0  0  0  0  0  0  0  0  0  0  0
   -0.0683    1.9001   -0.0778 C   0  0  0  0  0  0  0  0  0  0  0  0
    0.6612    0.7246    0.0998 C   0  0  0  0  0  0  0  0  0  0  0  0
    0.0152   -0.5213    0.1380 C   0  0  0  0  0  0  0  0  0  0  0  0
   -1.3600   -0.5862   -0.0031 C   0  0  0  0  0  0  0  0  0  0  0  0
   -2.1651    2.9974   -0.3615 H   0  0  0  0  0  0  0  0  0  0  0  0
    0.4510    2.8535   -0.1052 H   0  0  0  0  0  0  0  0  0  0  0  0
    1.7410    0.7685    0.2126 H   0  0  0  0  0  0  0  0  0  0  0  0
    0.5841   -1.4346    0.2770 H   0  0  0  0  0  0  0  0  0  0  0  0
   -1.8914   -1.5321    0.0177 H   0  0  0  0  0  0  0  0  0  0  0  0
   -4.4757    2.4802   -0.0380 O   0  0  0  0  0  0  0  0  0  0  0  0
   -4.1736    3.6838   -0.2166 C   0  0  0  0  0  0  0  0  0  0  0  0
   -3.0452    4.1843   -0.4442 O   0  0  0  0  0  0  0  0  0  0  0  0
   -5.3687    4.6722   -0.1213 C   0  0  0  0  0  0  0  0  0  0  0  0
   -5.0318    5.9198   -0.4812 F   0  0  0  0  0  0  0  0  0  0  0  0
   -6.3832    4.2718   -0.9143 F   0  0  0  0  0  0  0  0  0  0  0  0
   -5.8310    4.7168    1.1469 F   0  0  0  0  0  0  0  0  0  0  0  0
  1  8  1  0  0  0  0
  2  1  1  0  0  0  0
  3  2  2  0  0  0  0
  4  1  2  0  0  0  0
  4  5  1  0  0  0  0
  5  6  2  0  0  0  0
  6  7  1  0  0  0  0
  6 11  1  0  0  0  0
  7 12  1  0  0  0  0
  8 13  1  0  0  0  0
  8  7  2  0  0  0  0
  9  4  1  0  0  0  0
 10  5  1  0  0  0  0
 15 17  1  0  0  0  0
 15 14  1  0  0  0  0
 16 15  2  0  0  0  0
 17 20  1  0  0  0  0
 18 17  1  0  0  0  0
 19 17  1  0  0  0  0
M  RAD  2   3   2  14   2
M  END
