Coordinates from ORCA-job PhN2+~CF3COO-_B3LYPG-6-31G_dp-CH-Scan-d09-49-n800
 OpenBabel11261919373D

 20 19  0  0  0  0  0  0  0  0999 V2000
   -1.4059    0.1489   -0.1330 C   0  0  0  0  0  0  0  0  0  0  0  0
   -2.7913    0.2401   -0.2641 N   0  0  0  0  0  0  0  0  0  0  0  0
   -3.8979    0.3758   -0.3618 N   0  0  0  0  0  0  0  0  0  0  0  0
   -0.7962    1.4034    0.0261 C   0  0  0  0  0  0  0  0  0  0  0  0
    0.6118    1.2225    0.1548 C   0  0  0  0  0  0  0  0  0  0  0  0
    1.2434   -0.0165    0.1238 C   0  0  0  0  0  0  0  0  0  0  0  0
    0.5140   -1.2204   -0.0443 C   0  0  0  0  0  0  0  0  0  0  0  0
   -0.8546   -1.1611   -0.1791 C   0  0  0  0  0  0  0  0  0  0  0  0
   -3.1545    4.6697    0.0621 H   0  0  0  0  0  0  0  0  0  0  0  0
    1.2432    2.1025    0.2874 H   0  0  0  0  0  0  0  0  0  0  0  0
    2.3256   -0.0790    0.2312 H   0  0  0  0  0  0  0  0  0  0  0  0
    1.0283   -2.1759   -0.0663 H   0  0  0  0  0  0  0  0  0  0  0  0
   -1.4671   -2.0491   -0.3112 H   0  0  0  0  0  0  0  0  0  0  0  0
   -4.9641    3.2002   -0.2814 O   0  0  0  0  0  0  0  0  0  0  0  0
   -4.9983    4.3997   -0.1827 C   0  0  0  0  0  0  0  0  0  0  0  0
   -3.9584    5.2152    0.0116 O   0  0  0  0  0  0  0  0  0  0  0  0
   -6.3027    5.2221   -0.2669 C   0  0  0  0  0  0  0  0  0  0  0  0
   -6.2340    6.1026   -1.2805 F   0  0  0  0  0  0  0  0  0  0  0  0
   -7.3448    4.4140   -0.4690 F   0  0  0  0  0  0  0  0  0  0  0  0
   -6.4978    5.9039    0.8751 F   0  0  0  0  0  0  0  0  0  0  0  0
  1  4  1  0  0  0  0
  2  1  1  0  0  0  0
  3  2  1  0  0  0  0
  4  5  2  0  0  0  0
  5 10  1  0  0  0  0
  6  5  1  0  0  0  0
  6 11  1  0  0  0  0
  7  6  2  0  0  0  0
  8  1  2  0  0  0  0
  8  7  1  0  0  0  0
 12  7  1  0  0  0  0
 13  8  1  0  0  0  0
 14 15  2  0  0  0  0
 15 16  1  0  0  0  0
 16  9  1  0  0  0  0
 17 15  1  0  0  0  0
 17 20  1  0  0  0  0
 18 17  1  0  0  0  0
 19 17  1  0  0  0  0
M  RAD  3   2   2   3   3   4   2
M  END
