Coordinates from ORCA-job PhN2+~CF3COO-_B3LYPG-6-31G_dp-CH-Scan-d09-49-n800
 OpenBabel11261919373D

 20 19  0  0  0  0  0  0  0  0999 V2000
   -1.9074    0.3124   -0.1837 C   0  0  0  0  0  0  0  0  0  0  0  0
   -3.2686    0.0842   -0.3505 N   0  0  0  0  0  0  0  0  0  0  0  0
   -4.3715   -0.0299   -0.4793 N   0  0  0  0  0  0  0  0  0  0  0  0
   -1.5523    1.6645   -0.0387 C   0  0  0  0  0  0  0  0  0  0  0  0
   -0.1527    1.8004    0.1274 C   0  0  0  0  0  0  0  0  0  0  0  0
    0.7274    0.7208    0.1416 C   0  0  0  0  0  0  0  0  0  0  0  0
    0.2700   -0.6069   -0.0133 C   0  0  0  0  0  0  0  0  0  0  0  0
   -1.0782   -0.8387   -0.1816 C   0  0  0  0  0  0  0  0  0  0  0  0
   -2.6939    3.0962   -0.0505 H   0  0  0  0  0  0  0  0  0  0  0  0
    0.2631    2.7987    0.2524 H   0  0  0  0  0  0  0  0  0  0  0  0
    1.7932    0.8934    0.2756 H   0  0  0  0  0  0  0  0  0  0  0  0
    0.9697   -1.4358    0.0006 H   0  0  0  0  0  0  0  0  0  0  0  0
   -1.4844   -1.8382   -0.3056 H   0  0  0  0  0  0  0  0  0  0  0  0
   -5.0630    2.5861   -0.3299 O   0  0  0  0  0  0  0  0  0  0  0  0
   -4.5416    3.6767   -0.1915 C   0  0  0  0  0  0  0  0  0  0  0  0
   -3.2733    3.9580   -0.0420 O   0  0  0  0  0  0  0  0  0  0  0  0
   -5.3926    4.9687   -0.1780 C   0  0  0  0  0  0  0  0  0  0  0  0
   -5.0318    5.7825   -1.1897 F   0  0  0  0  0  0  0  0  0  0  0  0
   -6.6941    4.6867   -0.3094 F   0  0  0  0  0  0  0  0  0  0  0  0
   -5.2194    5.6391    0.9778 F   0  0  0  0  0  0  0  0  0  0  0  0
  1  8  2  0  0  0  0
  1  4  1  0  0  0  0
  2  1  1  0  0  0  0
  3  2  1  0  0  0  0
  4  5  2  0  0  0  0
  5  6  1  0  0  0  0
  5 10  1  0  0  0  0
  6 11  1  0  0  0  0
  7 12  1  0  0  0  0
  7  6  2  0  0  0  0
  8  7  1  0  0  0  0
  9 16  1  0  0  0  0
 13  8  1  0  0  0  0
 14 15  2  0  0  0  0
 15 17  1  0  0  0  0
 15 16  1  0  0  0  0
 17 20  1  0  0  0  0
 18 17  1  0  0  0  0
 19 17  1  0  0  0  0
M  RAD  3   2   2   3   3   4   2
M  END
