Coordinates from ORCA-job PhN2+~CF3COO-_B3LYPG-6-31G_dp-CH-Scan-d09-49-n800
 OpenBabel11261919373D

 20 19  0  0  0  0  0  0  0  0999 V2000
   -1.3846    0.1449   -0.1318 C   0  0  0  0  0  0  0  0  0  0  0  0
   -2.7691    0.2525   -0.2625 N   0  0  0  0  0  0  0  0  0  0  0  0
   -3.8739    0.4026   -0.3604 N   0  0  0  0  0  0  0  0  0  0  0  0
   -0.7622    1.3922    0.0331 C   0  0  0  0  0  0  0  0  0  0  0  0
    0.6439    1.1956    0.1619 C   0  0  0  0  0  0  0  0  0  0  0  0
    1.2622   -0.0499    0.1258 C   0  0  0  0  0  0  0  0  0  0  0  0
    0.5201   -1.2453   -0.0481 C   0  0  0  0  0  0  0  0  0  0  0  0
   -0.8477   -1.1709   -0.1835 C   0  0  0  0  0  0  0  0  0  0  0  0
   -3.1774    4.7473    0.0608 H   0  0  0  0  0  0  0  0  0  0  0  0
    1.2845    2.0682    0.2988 H   0  0  0  0  0  0  0  0  0  0  0  0
    2.3436   -0.1245    0.2337 H   0  0  0  0  0  0  0  0  0  0  0  0
    1.0243   -2.2061   -0.0742 H   0  0  0  0  0  0  0  0  0  0  0  0
   -1.4696   -2.0516   -0.3200 H   0  0  0  0  0  0  0  0  0  0  0  0
   -4.9505    3.2349   -0.2756 O   0  0  0  0  0  0  0  0  0  0  0  0
   -5.0142    4.4335   -0.1813 C   0  0  0  0  0  0  0  0  0  0  0  0
   -3.9935    5.2742    0.0092 O   0  0  0  0  0  0  0  0  0  0  0  0
   -6.3378    5.2240   -0.2690 C   0  0  0  0  0  0  0  0  0  0  0  0
   -6.2952    6.0908   -1.2958 F   0  0  0  0  0  0  0  0  0  0  0  0
   -7.3618    4.3888   -0.4534 F   0  0  0  0  0  0  0  0  0  0  0  0
   -6.5426    5.9177    0.8640 F   0  0  0  0  0  0  0  0  0  0  0  0
  1  4  1  0  0  0  0
  2  1  1  0  0  0  0
  3  2  1  0  0  0  0
  4  5  2  0  0  0  0
  5 10  1  0  0  0  0
  6  5  1  0  0  0  0
  6 11  1  0  0  0  0
  7  6  2  0  0  0  0
  8  1  2  0  0  0  0
  8  7  1  0  0  0  0
 12  7  1  0  0  0  0
 13  8  1  0  0  0  0
 14 15  2  0  0  0  0
 15 16  1  0  0  0  0
 16  9  1  0  0  0  0
 17 15  1  0  0  0  0
 17 20  1  0  0  0  0
 18 17  1  0  0  0  0
 19 17  1  0  0  0  0
M  RAD  3   2   2   3   3   4   2
M  END
