Coordinates from ORCA-job PhN2+~CF3COO-_B3LYPG-6-31G_dp-CH-Scan-d09-49-n800
 OpenBabel11261919373D

 20 19  0  0  0  0  0  0  0  0999 V2000
   -1.5194    0.1788   -0.1491 C   0  0  0  0  0  0  0  0  0  0  0  0
   -2.9051    0.1898   -0.2948 N   0  0  0  0  0  0  0  0  0  0  0  0
   -4.0163    0.2557   -0.4073 N   0  0  0  0  0  0  0  0  0  0  0  0
   -0.9744    1.4645    0.0002 C   0  0  0  0  0  0  0  0  0  0  0  0
    0.4387    1.3615    0.1439 C   0  0  0  0  0  0  0  0  0  0  0  0
    1.1351    0.1571    0.1339 C   0  0  0  0  0  0  0  0  0  0  0  0
    0.4717   -1.0849   -0.0256 C   0  0  0  0  0  0  0  0  0  0  0  0
   -0.8969   -1.0994   -0.1735 C   0  0  0  0  0  0  0  0  0  0  0  0
   -3.0375    4.2772    0.0082 H   0  0  0  0  0  0  0  0  0  0  0  0
    1.0206    2.2754    0.2711 H   0  0  0  0  0  0  0  0  0  0  0  0
    2.2178    0.1537    0.2519 H   0  0  0  0  0  0  0  0  0  0  0  0
    1.0352   -2.0124   -0.0310 H   0  0  0  0  0  0  0  0  0  0  0  0
   -1.4601   -2.0202   -0.2999 H   0  0  0  0  0  0  0  0  0  0  0  0
   -5.0173    3.0298   -0.3088 O   0  0  0  0  0  0  0  0  0  0  0  0
   -4.9060    4.2244   -0.1956 C   0  0  0  0  0  0  0  0  0  0  0  0
   -3.7767    4.9103   -0.0174 O   0  0  0  0  0  0  0  0  0  0  0  0
   -6.1083    5.1927   -0.2359 C   0  0  0  0  0  0  0  0  0  0  0  0
   -5.9515    6.0939   -1.2213 F   0  0  0  0  0  0  0  0  0  0  0  0
   -7.2398    4.5173   -0.4477 F   0  0  0  0  0  0  0  0  0  0  0  0
   -6.2114    5.8539    0.9305 F   0  0  0  0  0  0  0  0  0  0  0  0
  1  4  1  0  0  0  0
  2  1  1  0  0  0  0
  3  2  1  0  0  0  0
  4  5  2  0  0  0  0
  5 10  1  0  0  0  0
  6  5  1  0  0  0  0
  6 11  1  0  0  0  0
  7  6  2  0  0  0  0
  8  1  2  0  0  0  0
  8  7  1  0  0  0  0
 12  7  1  0  0  0  0
 13  8  1  0  0  0  0
 14 15  2  0  0  0  0
 15 16  1  0  0  0  0
 16  9  1  0  0  0  0
 17 15  1  0  0  0  0
 17 20  1  0  0  0  0
 18 17  1  0  0  0  0
 19 17  1  0  0  0  0
M  RAD  3   2   2   3   3   4   2
M  END
