Coordinates from ORCA-job PhN2+~CF3COO-_B3LYPG-6-31G_dp-CH-Scan-d09-49-n800
 OpenBabel11261919373D

 20 19  0  0  0  0  0  0  0  0999 V2000
   -1.6597    0.2252   -0.1540 C   0  0  0  0  0  0  0  0  0  0  0  0
   -3.0412    0.1455   -0.3010 N   0  0  0  0  0  0  0  0  0  0  0  0
   -4.1534    0.1325   -0.4145 N   0  0  0  0  0  0  0  0  0  0  0  0
   -1.1865    1.5385    0.0054 C   0  0  0  0  0  0  0  0  0  0  0  0
    0.2276    1.5249    0.1500 C   0  0  0  0  0  0  0  0  0  0  0  0
    0.9962    0.3647    0.1321 C   0  0  0  0  0  0  0  0  0  0  0  0
    0.4094   -0.9129   -0.0366 C   0  0  0  0  0  0  0  0  0  0  0  0
   -0.9560   -1.0096   -0.1859 C   0  0  0  0  0  0  0  0  0  0  0  0
   -2.9237    3.8198    0.0155 H   0  0  0  0  0  0  0  0  0  0  0  0
    0.7502    2.4721    0.2843 H   0  0  0  0  0  0  0  0  0  0  0  0
    2.0767    0.4273    0.2512 H   0  0  0  0  0  0  0  0  0  0  0  0
    1.0271   -1.8049   -0.0478 H   0  0  0  0  0  0  0  0  0  0  0  0
   -1.4612   -1.9623   -0.3193 H   0  0  0  0  0  0  0  0  0  0  0  0
   -5.0639    2.8467   -0.3197 O   0  0  0  0  0  0  0  0  0  0  0  0
   -4.7880    4.0146   -0.1889 C   0  0  0  0  0  0  0  0  0  0  0  0
   -3.5839    4.5418   -0.0002 O   0  0  0  0  0  0  0  0  0  0  0  0
   -5.8537    5.1326   -0.2263 C   0  0  0  0  0  0  0  0  0  0  0  0
   -5.6025    5.9840   -1.2368 F   0  0  0  0  0  0  0  0  0  0  0  0
   -7.0703    4.6098   -0.4002 F   0  0  0  0  0  0  0  0  0  0  0  0
   -5.8448    5.8286    0.9245 F   0  0  0  0  0  0  0  0  0  0  0  0
  1  4  1  0  0  0  0
  2  1  1  0  0  0  0
  3  2  1  0  0  0  0
  4  5  2  0  0  0  0
  5 10  1  0  0  0  0
  6  5  1  0  0  0  0
  6 11  1  0  0  0  0
  7  6  2  0  0  0  0
  8  1  2  0  0  0  0
  8  7  1  0  0  0  0
 12  7  1  0  0  0  0
 13  8  1  0  0  0  0
 14 15  2  0  0  0  0
 15 16  1  0  0  0  0
 16  9  1  0  0  0  0
 17 15  1  0  0  0  0
 17 20  1  0  0  0  0
 18 17  1  0  0  0  0
 19 17  1  0  0  0  0
M  RAD  3   2   2   3   3   4   2
M  END
