Coordinates from ORCA-job PhN2+~CF3COO-_B3LYPG-6-31G_dp-CH-Scan-d09-49-n800
 OpenBabel11261919373D

 20 19  0  0  0  0  0  0  0  0999 V2000
   -1.3267    0.1373   -0.1540 C   0  0  0  0  0  0  0  0  0  0  0  0
   -2.7051    0.2872   -0.3084 N   0  0  0  0  0  0  0  0  0  0  0  0
   -3.8026    0.4732   -0.4261 N   0  0  0  0  0  0  0  0  0  0  0  0
   -0.6700    1.3672    0.0068 C   0  0  0  0  0  0  0  0  0  0  0  0
    0.7274    1.1294    0.1611 C   0  0  0  0  0  0  0  0  0  0  0  0
    1.3078   -0.1346    0.1501 C   0  0  0  0  0  0  0  0  0  0  0  0
    0.5324   -1.3090   -0.0224 C   0  0  0  0  0  0  0  0  0  0  0  0
   -0.8300   -1.1949   -0.1817 C   0  0  0  0  0  0  0  0  0  0  0  0
   -3.2382    4.9330    0.0102 H   0  0  0  0  0  0  0  0  0  0  0  0
    1.3921    1.9838    0.2983 H   0  0  0  0  0  0  0  0  0  0  0  0
    2.3844   -0.2410    0.2773 H   0  0  0  0  0  0  0  0  0  0  0  0
    1.0074   -2.2849   -0.0286 H   0  0  0  0  0  0  0  0  0  0  0  0
   -1.4763   -2.0579   -0.3187 H   0  0  0  0  0  0  0  0  0  0  0  0
   -4.9279    3.3234   -0.2839 O   0  0  0  0  0  0  0  0  0  0  0  0
   -5.0590    4.5161   -0.1884 C   0  0  0  0  0  0  0  0  0  0  0  0
   -4.0830    5.4142   -0.0219 O   0  0  0  0  0  0  0  0  0  0  0  0
   -6.4269    5.2300   -0.2463 C   0  0  0  0  0  0  0  0  0  0  0  0
   -6.4590    6.0902   -1.2790 F   0  0  0  0  0  0  0  0  0  0  0  0
   -7.4063    4.3370   -0.3998 F   0  0  0  0  0  0  0  0  0  0  0  0
   -6.6420    5.9192    0.8874 F   0  0  0  0  0  0  0  0  0  0  0  0
  1  4  1  0  0  0  0
  2  1  1  0  0  0  0
  3  2  1  0  0  0  0
  4  5  2  0  0  0  0
  5 10  1  0  0  0  0
  6  5  1  0  0  0  0
  6 11  1  0  0  0  0
  7  6  2  0  0  0  0
  8  1  2  0  0  0  0
  8  7  1  0  0  0  0
 12  7  1  0  0  0  0
 13  8  1  0  0  0  0
 14 15  2  0  0  0  0
 15 16  1  0  0  0  0
 16  9  1  0  0  0  0
 17 15  1  0  0  0  0
 17 20  1  0  0  0  0
 18 17  1  0  0  0  0
 19 17  1  0  0  0  0
M  RAD  3   2   2   3   3   4   2
M  END
