Coordinates from ORCA-job PhN2+~CF3COO-_B3LYPG-6-31G_dp-CH-Scan-d09-49-n800
 OpenBabel11261919373D

 20 19  0  0  0  0  0  0  0  0999 V2000
   -1.3420    0.1395   -0.1471 C   0  0  0  0  0  0  0  0  0  0  0  0
   -2.7222    0.2788   -0.2944 N   0  0  0  0  0  0  0  0  0  0  0  0
   -3.8218    0.4555   -0.4070 N   0  0  0  0  0  0  0  0  0  0  0  0
   -0.6939    1.3737    0.0159 C   0  0  0  0  0  0  0  0  0  0  0  0
    0.7060    1.1462    0.1626 C   0  0  0  0  0  0  0  0  0  0  0  0
    1.2961   -0.1132    0.1430 C   0  0  0  0  0  0  0  0  0  0  0  0
    0.5290   -1.2929   -0.0309 C   0  0  0  0  0  0  0  0  0  0  0  0
   -0.8350   -1.1886   -0.1831 C   0  0  0  0  0  0  0  0  0  0  0  0
   -3.2216    4.8884    0.0266 H   0  0  0  0  0  0  0  0  0  0  0  0
    1.3647    2.0051    0.3005 H   0  0  0  0  0  0  0  0  0  0  0  0
    2.3742   -0.2117    0.2645 H   0  0  0  0  0  0  0  0  0  0  0  0
    1.0116   -2.2650   -0.0439 H   0  0  0  0  0  0  0  0  0  0  0  0
   -1.4751   -2.0560   -0.3208 H   0  0  0  0  0  0  0  0  0  0  0  0
   -4.9309    3.3009   -0.2802 O   0  0  0  0  0  0  0  0  0  0  0  0
   -5.0464    4.4954   -0.1854 C   0  0  0  0  0  0  0  0  0  0  0  0
   -4.0600    5.3804   -0.0116 O   0  0  0  0  0  0  0  0  0  0  0  0
   -6.4042    5.2274   -0.2536 C   0  0  0  0  0  0  0  0  0  0  0  0
   -6.4183    6.0854   -1.2887 F   0  0  0  0  0  0  0  0  0  0  0  0
   -7.3945    4.3473   -0.4112 F   0  0  0  0  0  0  0  0  0  0  0  0
   -6.6173    5.9224    0.8769 F   0  0  0  0  0  0  0  0  0  0  0  0
  1  4  1  0  0  0  0
  2  1  1  0  0  0  0
  3  2  1  0  0  0  0
  4  5  2  0  0  0  0
  5 10  1  0  0  0  0
  6  5  1  0  0  0  0
  6 11  1  0  0  0  0
  7  6  2  0  0  0  0
  8  1  2  0  0  0  0
  8  7  1  0  0  0  0
 12  7  1  0  0  0  0
 13  8  1  0  0  0  0
 14 15  2  0  0  0  0
 15 16  1  0  0  0  0
 16  9  1  0  0  0  0
 17 15  1  0  0  0  0
 17 20  1  0  0  0  0
 18 17  1  0  0  0  0
 19 17  1  0  0  0  0
M  RAD  3   2   2   3   3   4   2
M  END
