Coordinates from ORCA-job PhN2+~CF3COO-_B3LYPG-6-31G_dp-CH-Scan-d09-49-n800
 OpenBabel11261919373D

 20 19  0  0  0  0  0  0  0  0999 V2000
   -1.9586    0.3392   -0.1999 C   0  0  0  0  0  0  0  0  0  0  0  0
   -3.3177    0.1010   -0.3801 N   0  0  0  0  0  0  0  0  0  0  0  0
   -4.4241    0.0372   -0.5136 N   0  0  0  0  0  0  0  0  0  0  0  0
   -1.6115    1.6912   -0.0565 C   0  0  0  0  0  0  0  0  0  0  0  0
   -0.2232    1.8605    0.1249 C   0  0  0  0  0  0  0  0  0  0  0  0
    0.6724    0.7924    0.1538 C   0  0  0  0  0  0  0  0  0  0  0  0
    0.2344   -0.5397    0.0002 C   0  0  0  0  0  0  0  0  0  0  0  0
   -1.1101   -0.7930   -0.1825 C   0  0  0  0  0  0  0  0  0  0  0  0
   -2.5866    2.8773   -0.0821 H   0  0  0  0  0  0  0  0  0  0  0  0
    0.1671    2.8684    0.2491 H   0  0  0  0  0  0  0  0  0  0  0  0
    1.7335    0.9814    0.2988 H   0  0  0  0  0  0  0  0  0  0  0  0
    0.9449   -1.3589    0.0258 H   0  0  0  0  0  0  0  0  0  0  0  0
   -1.4993   -1.7989   -0.3058 H   0  0  0  0  0  0  0  0  0  0  0  0
   -5.0706    2.5285   -0.2995 O   0  0  0  0  0  0  0  0  0  0  0  0
   -4.4853    3.5993   -0.1879 C   0  0  0  0  0  0  0  0  0  0  0  0
   -3.2182    3.8287   -0.0803 O   0  0  0  0  0  0  0  0  0  0  0  0
   -5.3028    4.9159   -0.1639 C   0  0  0  0  0  0  0  0  0  0  0  0
   -4.9490    5.7129   -1.1937 F   0  0  0  0  0  0  0  0  0  0  0  0
   -6.6188    4.6801   -0.2548 F   0  0  0  0  0  0  0  0  0  0  0  0
   -5.0780    5.5955    0.9796 F   0  0  0  0  0  0  0  0  0  0  0  0
  1  8  2  0  0  0  0
  1  4  1  0  0  0  0
  2  1  1  0  0  0  0
  3  2  1  0  0  0  0
  4  5  2  0  0  0  0
  5  6  1  0  0  0  0
  5 10  1  0  0  0  0
  6 11  1  0  0  0  0
  7 12  1  0  0  0  0
  7  6  2  0  0  0  0
  8  7  1  0  0  0  0
  9 16  1  0  0  0  0
 13  8  1  0  0  0  0
 14 15  2  0  0  0  0
 15 17  1  0  0  0  0
 15 16  1  0  0  0  0
 17 20  1  0  0  0  0
 18 17  1  0  0  0  0
 19 17  1  0  0  0  0
M  RAD  3   2   2   3   3   4   2
M  END
