Coordinates from ORCA-job PhN2+~CF3COO-_B3LYPG-6-31G_dp-CH-Scan-d09-49-n800
 OpenBabel11261919373D

 20 19  0  0  0  0  0  0  0  0999 V2000
   -1.9605    0.3416   -0.2005 C   0  0  0  0  0  0  0  0  0  0  0  0
   -3.3203    0.1061   -0.3812 N   0  0  0  0  0  0  0  0  0  0  0  0
   -4.4277    0.0565   -0.5137 N   0  0  0  0  0  0  0  0  0  0  0  0
   -1.6111    1.6926   -0.0571 C   0  0  0  0  0  0  0  0  0  0  0  0
   -0.2239    1.8635    0.1251 C   0  0  0  0  0  0  0  0  0  0  0  0
    0.6712    0.7950    0.1546 C   0  0  0  0  0  0  0  0  0  0  0  0
    0.2327   -0.5367    0.0010 C   0  0  0  0  0  0  0  0  0  0  0  0
   -1.1120   -0.7898   -0.1824 C   0  0  0  0  0  0  0  0  0  0  0  0
   -2.5739    2.8565   -0.0841 H   0  0  0  0  0  0  0  0  0  0  0  0
    0.1653    2.8717    0.2491 H   0  0  0  0  0  0  0  0  0  0  0  0
    1.7323    0.9837    0.3000 H   0  0  0  0  0  0  0  0  0  0  0  0
    0.9429   -1.3562    0.0271 H   0  0  0  0  0  0  0  0  0  0  0  0
   -1.5013   -1.7956   -0.3057 H   0  0  0  0  0  0  0  0  0  0  0  0
   -5.0748    2.5248   -0.2985 O   0  0  0  0  0  0  0  0  0  0  0  0
   -4.4839    3.5941   -0.1883 C   0  0  0  0  0  0  0  0  0  0  0  0
   -3.2180    3.8201   -0.0838 O   0  0  0  0  0  0  0  0  0  0  0  0
   -5.3005    4.9118   -0.1634 C   0  0  0  0  0  0  0  0  0  0  0  0
   -4.9471    5.7087   -1.1936 F   0  0  0  0  0  0  0  0  0  0  0  0
   -6.6174    4.6789   -0.2525 F   0  0  0  0  0  0  0  0  0  0  0  0
   -5.0734    5.5914    0.9798 F   0  0  0  0  0  0  0  0  0  0  0  0
  1  8  2  0  0  0  0
  1  4  1  0  0  0  0
  2  1  1  0  0  0  0
  3  2  1  0  0  0  0
  4  5  2  0  0  0  0
  5  6  1  0  0  0  0
  5 10  1  0  0  0  0
  6 11  1  0  0  0  0
  7 12  1  0  0  0  0
  7  6  2  0  0  0  0
  8  7  1  0  0  0  0
  9 16  1  0  0  0  0
 13  8  1  0  0  0  0
 14 15  2  0  0  0  0
 15 17  1  0  0  0  0
 15 16  1  0  0  0  0
 17 20  1  0  0  0  0
 18 17  1  0  0  0  0
 19 17  1  0  0  0  0
M  RAD  3   2   2   3   3   4   2
M  END
