Coordinates from ORCA-job PhN2+~CF3COO-_B3LYPG-6-31G_dp-CH-Scan-d09-49-n800
 OpenBabel11261919373D

 20 19  0  0  0  0  0  0  0  0999 V2000
   -1.3237    0.7130   -1.2181 C   0  0  0  0  0  0  0  0  0  0  0  0
   -2.2047    0.8184   -2.2941 N   0  0  0  0  0  0  0  0  0  0  0  0
   -2.8446    0.9200   -3.2061 N   0  0  0  0  0  0  0  0  0  0  0  0
   -0.0043    0.9976   -1.5992 C   0  0  0  0  0  0  0  0  0  0  0  0
    0.8455    0.8625   -0.4618 C   0  0  0  0  0  0  0  0  0  0  0  0
    0.3973    0.4943    0.8028 C   0  0  0  0  0  0  0  0  0  0  0  0
   -0.9722    0.2316    1.0617 C   0  0  0  0  0  0  0  0  0  0  0  0
   -1.8826    0.3402    0.0344 C   0  0  0  0  0  0  0  0  0  0  0  0
   -2.8090    4.6855   -0.5999 H   0  0  0  0  0  0  0  0  0  0  0  0
    1.9133    1.0551   -0.5793 H   0  0  0  0  0  0  0  0  0  0  0  0
    1.1048    0.4022    1.6259 H   0  0  0  0  0  0  0  0  0  0  0  0
   -1.2978   -0.0515    2.0576 H   0  0  0  0  0  0  0  0  0  0  0  0
   -2.9459    0.1633    0.1687 H   0  0  0  0  0  0  0  0  0  0  0  0
   -4.0508    2.7095   -0.8818 O   0  0  0  0  0  0  0  0  0  0  0  0
   -4.3370    3.6658   -0.2061 C   0  0  0  0  0  0  0  0  0  0  0  0
   -3.6169    4.7812   -0.0664 O   0  0  0  0  0  0  0  0  0  0  0  0
   -5.6294    3.7589    0.6342 C   0  0  0  0  0  0  0  0  0  0  0  0
   -6.3817    4.7888    0.2133 F   0  0  0  0  0  0  0  0  0  0  0  0
   -6.3337    2.6320    0.5170 F   0  0  0  0  0  0  0  0  0  0  0  0
   -5.3281    3.9507    1.9290 F   0  0  0  0  0  0  0  0  0  0  0  0
  1  8  1  0  0  0  0
  2  1  1  0  0  0  0
  3  2  1  0  0  0  0
  4  1  2  0  0  0  0
  4  5  1  0  0  0  0
  5  6  2  0  0  0  0
  6  7  1  0  0  0  0
  6 11  1  0  0  0  0
  7 12  1  0  0  0  0
  8 13  1  0  0  0  0
  8  7  2  0  0  0  0
  9 16  1  0  0  0  0
 10  5  1  0  0  0  0
 14 15  2  0  0  0  0
 15 16  1  0  0  0  0
 15 17  1  0  0  0  0
 17 20  1  0  0  0  0
 18 17  1  0  0  0  0
 19 17  1  0  0  0  0
M  RAD  3   2   2   3   3   4   2
M  END
