Coordinates from ORCA-job PhN2+~CF3COO-_B3LYPG-6-31G_dp-CH-Scan-d09-49-n800
 OpenBabel11261919373D

 20 19  0  0  0  0  0  0  0  0999 V2000
   -1.7900    0.2699   -0.1639 C   0  0  0  0  0  0  0  0  0  0  0  0
   -3.1628    0.1103   -0.3163 N   0  0  0  0  0  0  0  0  0  0  0  0
   -4.2711    0.0341   -0.4348 N   0  0  0  0  0  0  0  0  0  0  0  0
   -1.3802    1.6057   -0.0114 C   0  0  0  0  0  0  0  0  0  0  0  0
    0.0294    1.6715    0.1388 C   0  0  0  0  0  0  0  0  0  0  0  0
    0.8587    0.5532    0.1322 C   0  0  0  0  0  0  0  0  0  0  0  0
    0.3403   -0.7530   -0.0292 C   0  0  0  0  0  0  0  0  0  0  0  0
   -1.0180   -0.9225   -0.1832 C   0  0  0  0  0  0  0  0  0  0  0  0
   -2.8157    3.4369   -0.0117 H   0  0  0  0  0  0  0  0  0  0  0  0
    0.4974    2.6468    0.2682 H   0  0  0  0  0  0  0  0  0  0  0  0
    1.9334    0.6747    0.2547 H   0  0  0  0  0  0  0  0  0  0  0  0
    1.0031   -1.6120   -0.0315 H   0  0  0  0  0  0  0  0  0  0  0  0
   -1.4710   -1.9014   -0.3114 H   0  0  0  0  0  0  0  0  0  0  0  0
   -5.0738    2.7027   -0.3344 O   0  0  0  0  0  0  0  0  0  0  0  0
   -4.6645    3.8331   -0.1926 C   0  0  0  0  0  0  0  0  0  0  0  0
   -3.4171    4.2264   -0.0133 O   0  0  0  0  0  0  0  0  0  0  0  0
   -5.6118    5.0544   -0.2046 C   0  0  0  0  0  0  0  0  0  0  0  0
   -5.2843    5.8931   -1.2050 F   0  0  0  0  0  0  0  0  0  0  0  0
   -6.8788    4.6646   -0.3748 F   0  0  0  0  0  0  0  0  0  0  0  0
   -5.5247    5.7303    0.9559 F   0  0  0  0  0  0  0  0  0  0  0  0
  1  4  1  0  0  0  0
  2  1  1  0  0  0  0
  3  2  1  0  0  0  0
  4  5  2  0  0  0  0
  5 10  1  0  0  0  0
  6  5  1  0  0  0  0
  6 11  1  0  0  0  0
  7  6  2  0  0  0  0
  8  1  2  0  0  0  0
  8  7  1  0  0  0  0
 12  7  1  0  0  0  0
 13  8  1  0  0  0  0
 14 15  2  0  0  0  0
 15 16  1  0  0  0  0
 16  9  1  0  0  0  0
 17 15  1  0  0  0  0
 17 20  1  0  0  0  0
 18 17  1  0  0  0  0
 19 17  1  0  0  0  0
M  RAD  3   2   2   3   3   4   2
M  END
