Coordinates from ORCA-job PhN2+~CF3COO-_B3LYPG-6-31G_dp-CH-Scan-d09-49-n800
 OpenBabel11261919373D

 20 19  0  0  0  0  0  0  0  0999 V2000
   -1.2924    0.7304   -1.2199 C   0  0  0  0  0  0  0  0  0  0  0  0
   -2.1607    0.8740   -2.3014 N   0  0  0  0  0  0  0  0  0  0  0  0
   -2.7916    1.0010   -3.2168 N   0  0  0  0  0  0  0  0  0  0  0  0
    0.0396    0.9643   -1.5919 C   0  0  0  0  0  0  0  0  0  0  0  0
    0.8763    0.7921   -0.4498 C   0  0  0  0  0  0  0  0  0  0  0  0
    0.4060    0.4371    0.8105 C   0  0  0  0  0  0  0  0  0  0  0  0
   -0.9744    0.2275    1.0600 C   0  0  0  0  0  0  0  0  0  0  0  0
   -1.8735    0.3755    0.0279 C   0  0  0  0  0  0  0  0  0  0  0  0
   -2.9186    4.7703   -0.7121 H   0  0  0  0  0  0  0  0  0  0  0  0
    1.9515    0.9433   -0.5600 H   0  0  0  0  0  0  0  0  0  0  0  0
    1.1041    0.3142    1.6375 H   0  0  0  0  0  0  0  0  0  0  0  0
   -1.3170   -0.0458    2.0530 H   0  0  0  0  0  0  0  0  0  0  0  0
   -2.9439    0.2418    0.1549 H   0  0  0  0  0  0  0  0  0  0  0  0
   -4.0528    2.7181   -0.8593 O   0  0  0  0  0  0  0  0  0  0  0  0
   -4.3693    3.6856   -0.2142 C   0  0  0  0  0  0  0  0  0  0  0  0
   -3.7099    4.8445   -0.1507 O   0  0  0  0  0  0  0  0  0  0  0  0
   -5.6353    3.7447    0.6682 C   0  0  0  0  0  0  0  0  0  0  0  0
   -6.4712    4.6917    0.2112 F   0  0  0  0  0  0  0  0  0  0  0  0
   -6.2624    2.5674    0.6486 F   0  0  0  0  0  0  0  0  0  0  0  0
   -5.3058    4.0413    1.9359 F   0  0  0  0  0  0  0  0  0  0  0  0
  1  8  1  0  0  0  0
  2  1  1  0  0  0  0
  3  2  1  0  0  0  0
  4  1  2  0  0  0  0
  4  5  1  0  0  0  0
  5  6  2  0  0  0  0
  6  7  1  0  0  0  0
  6 11  1  0  0  0  0
  7 12  1  0  0  0  0
  8 13  1  0  0  0  0
  8  7  2  0  0  0  0
  9 16  1  0  0  0  0
 10  5  1  0  0  0  0
 14 15  2  0  0  0  0
 15 16  1  0  0  0  0
 15 17  1  0  0  0  0
 17 20  1  0  0  0  0
 18 17  1  0  0  0  0
 19 17  1  0  0  0  0
M  RAD  3   2   2   3   3   4   2
M  END
