Coordinates from ORCA-job PhN2+~CF3COO-_B3LYPG-6-31G_dp-CH-Scan-d09-49-n800
 OpenBabel11261919373D

 20 19  0  0  0  0  0  0  0  0999 V2000
   -2.0555    0.6959   -0.2833 C   0  0  0  0  0  0  0  0  0  0  0  0
   -3.4416    0.5905   -0.5700 N   0  0  0  0  0  0  0  0  0  0  0  0
   -4.3350   -0.0262   -0.8607 N   0  0  0  0  0  0  0  0  0  0  0  0
   -1.3927    1.9169   -0.3621 C   0  0  0  0  0  0  0  0  0  0  0  0
   -0.0191    1.9014   -0.1156 C   0  0  0  0  0  0  0  0  0  0  0  0
    0.6387    0.7142    0.2127 C   0  0  0  0  0  0  0  0  0  0  0  0
   -0.0635   -0.4968    0.2856 C   0  0  0  0  0  0  0  0  0  0  0  0
   -1.4263   -0.5242    0.0279 C   0  0  0  0  0  0  0  0  0  0  0  0
   -2.0114    2.9271   -0.6342 H   0  0  0  0  0  0  0  0  0  0  0  0
    0.5363    2.8321   -0.1724 H   0  0  0  0  0  0  0  0  0  0  0  0
    1.7051    0.7259    0.4175 H   0  0  0  0  0  0  0  0  0  0  0  0
    0.4507   -1.4169    0.5426 H   0  0  0  0  0  0  0  0  0  0  0  0
   -1.9972   -1.4455    0.0708 H   0  0  0  0  0  0  0  0  0  0  0  0
   -4.3380    2.4739    0.0764 O   0  0  0  0  0  0  0  0  0  0  0  0
   -4.1501    3.6731   -0.2882 C   0  0  0  0  0  0  0  0  0  0  0  0
   -3.1644    4.1957   -0.8326 O   0  0  0  0  0  0  0  0  0  0  0  0
   -5.3704    4.5891    0.0260 C   0  0  0  0  0  0  0  0  0  0  0  0
   -5.1843    5.8465   -0.4018 F   0  0  0  0  0  0  0  0  0  0  0  0
   -6.4871    4.1123   -0.5634 F   0  0  0  0  0  0  0  0  0  0  0  0
   -5.5958    4.6340    1.3565 F   0  0  0  0  0  0  0  0  0  0  0  0
  1  8  1  0  0  0  0
  2  1  1  0  0  0  0
  3  2  2  0  0  0  0
  4  1  2  0  0  0  0
  4  5  1  0  0  0  0
  5  6  2  0  0  0  0
  6  7  1  0  0  0  0
  6 11  1  0  0  0  0
  7 12  1  0  0  0  0
  8 13  1  0  0  0  0
  8  7  2  0  0  0  0
  9  4  1  0  0  0  0
 10  5  1  0  0  0  0
 15 17  1  0  0  0  0
 15 14  1  0  0  0  0
 16 15  2  0  0  0  0
 17 20  1  0  0  0  0
 18 17  1  0  0  0  0
 19 17  1  0  0  0  0
M  RAD  2   3   2  14   2
M  END
