Coordinates from ORCA-job PhN2+~CF3COO-_B3LYPG-6-31G_dp-CH-Scan-d09-49-n800
 OpenBabel11261919373D

 20 19  0  0  0  0  0  0  0  0999 V2000
   -1.4581    0.1599   -0.1427 C   0  0  0  0  0  0  0  0  0  0  0  0
   -2.8442    0.2122   -0.2832 N   0  0  0  0  0  0  0  0  0  0  0  0
   -3.9532    0.3153   -0.3909 N   0  0  0  0  0  0  0  0  0  0  0  0
   -0.8806    1.4308    0.0082 C   0  0  0  0  0  0  0  0  0  0  0  0
    0.5303    1.2885    0.1466 C   0  0  0  0  0  0  0  0  0  0  0  0
    1.1941    0.0660    0.1307 C   0  0  0  0  0  0  0  0  0  0  0  0
    0.4971   -1.1577   -0.0301 C   0  0  0  0  0  0  0  0  0  0  0  0
   -0.8718   -1.1353   -0.1732 C   0  0  0  0  0  0  0  0  0  0  0  0
   -3.0984    4.4777    0.0246 H   0  0  0  0  0  0  0  0  0  0  0  0
    1.1375    2.1859    0.2744 H   0  0  0  0  0  0  0  0  0  0  0  0
    2.2768    0.0330    0.2448 H   0  0  0  0  0  0  0  0  0  0  0  0
    1.0359   -2.0997   -0.0401 H   0  0  0  0  0  0  0  0  0  0  0  0
   -1.4601   -2.0401   -0.3004 H   0  0  0  0  0  0  0  0  0  0  0  0
   -4.9973    3.1176   -0.2998 O   0  0  0  0  0  0  0  0  0  0  0  0
   -4.9585    4.3167   -0.1923 C   0  0  0  0  0  0  0  0  0  0  0  0
   -3.8709    5.0683   -0.0087 O   0  0  0  0  0  0  0  0  0  0  0  0
   -6.2139    5.2143   -0.2478 C   0  0  0  0  0  0  0  0  0  0  0  0
   -6.1003    6.1166   -1.2379 F   0  0  0  0  0  0  0  0  0  0  0  0
   -7.3026    4.4737   -0.4638 F   0  0  0  0  0  0  0  0  0  0  0  0
   -6.3633    5.8754    0.9134 F   0  0  0  0  0  0  0  0  0  0  0  0
  1  4  1  0  0  0  0
  2  1  1  0  0  0  0
  3  2  1  0  0  0  0
  4  5  2  0  0  0  0
  5 10  1  0  0  0  0
  6  5  1  0  0  0  0
  6 11  1  0  0  0  0
  7  6  2  0  0  0  0
  8  1  2  0  0  0  0
  8  7  1  0  0  0  0
 12  7  1  0  0  0  0
 13  8  1  0  0  0  0
 14 15  2  0  0  0  0
 15 16  1  0  0  0  0
 16  9  1  0  0  0  0
 17 15  1  0  0  0  0
 17 20  1  0  0  0  0
 18 17  1  0  0  0  0
 19 17  1  0  0  0  0
M  RAD  3   2   2   3   3   4   2
M  END
