Coordinates from ORCA-job PhN2+~CF3COO-_B3LYPG-6-31G_dp-CH-Scan-d09-49-n800
 OpenBabel11261919373D

 20 19  0  0  0  0  0  0  0  0999 V2000
   -1.8639    0.2956   -0.1741 C   0  0  0  0  0  0  0  0  0  0  0  0
   -3.2296    0.0910   -0.3335 N   0  0  0  0  0  0  0  0  0  0  0  0
   -4.3345   -0.0132   -0.4570 N   0  0  0  0  0  0  0  0  0  0  0  0
   -1.4900    1.6426   -0.0261 C   0  0  0  0  0  0  0  0  0  0  0  0
   -0.0856    1.7524    0.1317 C   0  0  0  0  0  0  0  0  0  0  0  0
    0.7767    0.6589    0.1360 C   0  0  0  0  0  0  0  0  0  0  0  0
    0.2974   -0.6616   -0.0213 C   0  0  0  0  0  0  0  0  0  0  0  0
   -1.0550   -0.8710   -0.1821 C   0  0  0  0  0  0  0  0  0  0  0  0
   -2.7449    3.2273   -0.0316 H   0  0  0  0  0  0  0  0  0  0  0  0
    0.3501    2.7425    0.2584 H   0  0  0  0  0  0  0  0  0  0  0  0
    1.8463    0.8134    0.2640 H   0  0  0  0  0  0  0  0  0  0  0  0
    0.9843   -1.5013   -0.0151 H   0  0  0  0  0  0  0  0  0  0  0  0
   -1.4782   -1.8633   -0.3076 H   0  0  0  0  0  0  0  0  0  0  0  0
   -5.0680    2.6290   -0.3374 O   0  0  0  0  0  0  0  0  0  0  0  0
   -4.5886    3.7346   -0.1930 C   0  0  0  0  0  0  0  0  0  0  0  0
   -3.3261    4.0569   -0.0260 O   0  0  0  0  0  0  0  0  0  0  0  0
   -5.4736    5.0028   -0.1893 C   0  0  0  0  0  0  0  0  0  0  0  0
   -5.1191    5.8277   -1.1932 F   0  0  0  0  0  0  0  0  0  0  0  0
   -6.7630    4.6821   -0.3417 F   0  0  0  0  0  0  0  0  0  0  0  0
   -5.3362    5.6727    0.9707 F   0  0  0  0  0  0  0  0  0  0  0  0
  1  4  1  0  0  0  0
  2  1  1  0  0  0  0
  3  2  1  0  0  0  0
  4  5  2  0  0  0  0
  5  6  1  0  0  0  0
  5 10  1  0  0  0  0
  6 11  1  0  0  0  0
  7 12  1  0  0  0  0
  7  6  2  0  0  0  0
  8  1  2  0  0  0  0
  8  7  1  0  0  0  0
  9 16  1  0  0  0  0
 13  8  1  0  0  0  0
 14 15  2  0  0  0  0
 15 17  1  0  0  0  0
 15 16  1  0  0  0  0
 17 20  1  0  0  0  0
 18 17  1  0  0  0  0
 19 17  1  0  0  0  0
M  RAD  3   2   2   3   3   4   2
M  END
