Coordinates from ORCA-job PhN2+~CF3COO-_B3LYPG-6-31G_dp-CH-Scan-d09-49-n800
 OpenBabel11261919373D

 20 19  0  0  0  0  0  0  0  0999 V2000
   -1.9096    0.3132   -0.1841 C   0  0  0  0  0  0  0  0  0  0  0  0
   -3.2706    0.0838   -0.3513 N   0  0  0  0  0  0  0  0  0  0  0  0
   -4.3734   -0.0306   -0.4803 N   0  0  0  0  0  0  0  0  0  0  0  0
   -1.5554    1.6656   -0.0394 C   0  0  0  0  0  0  0  0  0  0  0  0
   -0.1561    1.8028    0.1271 C   0  0  0  0  0  0  0  0  0  0  0  0
    0.7249    0.7239    0.1418 C   0  0  0  0  0  0  0  0  0  0  0  0
    0.2686   -0.6041   -0.0128 C   0  0  0  0  0  0  0  0  0  0  0  0
   -1.0794   -0.8371   -0.1816 C   0  0  0  0  0  0  0  0  0  0  0  0
   -2.6910    3.0892   -0.0515 H   0  0  0  0  0  0  0  0  0  0  0  0
    0.2588    2.8016    0.2520 H   0  0  0  0  0  0  0  0  0  0  0  0
    1.7906    0.8975    0.2761 H   0  0  0  0  0  0  0  0  0  0  0  0
    0.9690   -1.4325    0.0015 H   0  0  0  0  0  0  0  0  0  0  0  0
   -1.4847   -1.8369   -0.3053 H   0  0  0  0  0  0  0  0  0  0  0  0
   -5.0627    2.5841   -0.3298 O   0  0  0  0  0  0  0  0  0  0  0  0
   -4.5393    3.6738   -0.1916 C   0  0  0  0  0  0  0  0  0  0  0  0
   -3.2707    3.9530   -0.0428 O   0  0  0  0  0  0  0  0  0  0  0  0
   -5.3886    4.9670   -0.1774 C   0  0  0  0  0  0  0  0  0  0  0  0
   -5.0273    5.7805   -1.1892 F   0  0  0  0  0  0  0  0  0  0  0  0
   -6.6907    4.6871   -0.3080 F   0  0  0  0  0  0  0  0  0  0  0  0
   -5.2137    5.6372    0.9783 F   0  0  0  0  0  0  0  0  0  0  0  0
  1  8  2  0  0  0  0
  1  4  1  0  0  0  0
  2  1  1  0  0  0  0
  3  2  1  0  0  0  0
  4  5  2  0  0  0  0
  5  6  1  0  0  0  0
  5 10  1  0  0  0  0
  6 11  1  0  0  0  0
  7 12  1  0  0  0  0
  7  6  2  0  0  0  0
  8  7  1  0  0  0  0
  9 16  1  0  0  0  0
 13  8  1  0  0  0  0
 14 15  2  0  0  0  0
 15 17  1  0  0  0  0
 15 16  1  0  0  0  0
 17 20  1  0  0  0  0
 18 17  1  0  0  0  0
 19 17  1  0  0  0  0
M  RAD  3   2   2   3   3   4   2
M  END
