Coordinates from ORCA-job PhN2+~CF3COO-_B3LYPG-6-31G_dp-CH-Scan-d09-49-n800
 OpenBabel11261919373D

 20 19  0  0  0  0  0  0  0  0999 V2000
   -1.4414    0.1556   -0.1405 C   0  0  0  0  0  0  0  0  0  0  0  0
   -2.8274    0.2199   -0.2791 N   0  0  0  0  0  0  0  0  0  0  0  0
   -3.9355    0.3338   -0.3863 N   0  0  0  0  0  0  0  0  0  0  0  0
   -0.8544    1.4218    0.0121 C   0  0  0  0  0  0  0  0  0  0  0  0
    0.5557    1.2680    0.1487 C   0  0  0  0  0  0  0  0  0  0  0  0
    1.2098    0.0404    0.1296 C   0  0  0  0  0  0  0  0  0  0  0  0
    0.5030   -1.1776   -0.0328 C   0  0  0  0  0  0  0  0  0  0  0  0
   -0.8658   -1.1442   -0.1743 C   0  0  0  0  0  0  0  0  0  0  0  0
   -3.1154    4.5363    0.0321 H   0  0  0  0  0  0  0  0  0  0  0  0
    1.1702    2.1603    0.2776 H   0  0  0  0  0  0  0  0  0  0  0  0
    2.2923   -0.0015    0.2424 H   0  0  0  0  0  0  0  0  0  0  0  0
    1.0346   -2.1238   -0.0454 H   0  0  0  0  0  0  0  0  0  0  0  0
   -1.4614   -2.0441   -0.3026 H   0  0  0  0  0  0  0  0  0  0  0  0
   -4.9884    3.1432   -0.2960 O   0  0  0  0  0  0  0  0  0  0  0  0
   -4.9717    4.3427   -0.1902 C   0  0  0  0  0  0  0  0  0  0  0  0
   -3.8977    5.1137   -0.0042 O   0  0  0  0  0  0  0  0  0  0  0  0
   -6.2424    5.2180   -0.2520 C   0  0  0  0  0  0  0  0  0  0  0  0
   -6.1437    6.1153   -1.2482 F   0  0  0  0  0  0  0  0  0  0  0  0
   -7.3176    4.4569   -0.4638 F   0  0  0  0  0  0  0  0  0  0  0  0
   -6.4042    5.8842    0.9046 F   0  0  0  0  0  0  0  0  0  0  0  0
  1  4  1  0  0  0  0
  2  1  1  0  0  0  0
  3  2  1  0  0  0  0
  4  5  2  0  0  0  0
  5 10  1  0  0  0  0
  6  5  1  0  0  0  0
  6 11  1  0  0  0  0
  7  6  2  0  0  0  0
  8  1  2  0  0  0  0
  8  7  1  0  0  0  0
 12  7  1  0  0  0  0
 13  8  1  0  0  0  0
 14 15  2  0  0  0  0
 15 16  1  0  0  0  0
 16  9  1  0  0  0  0
 17 15  1  0  0  0  0
 17 20  1  0  0  0  0
 18 17  1  0  0  0  0
 19 17  1  0  0  0  0
M  RAD  3   2   2   3   3   4   2
M  END
