Coordinates from ORCA-job PhN2+~CF3COO-_B3LYPG-6-31G_dp-CH-Scan-d09-49-n800
 OpenBabel11261919373D

 20 19  0  0  0  0  0  0  0  0999 V2000
   -1.9063    0.3119   -0.1834 C   0  0  0  0  0  0  0  0  0  0  0  0
   -3.2676    0.0842   -0.3500 N   0  0  0  0  0  0  0  0  0  0  0  0
   -4.3706   -0.0297   -0.4786 N   0  0  0  0  0  0  0  0  0  0  0  0
   -1.5508    1.6639   -0.0383 C   0  0  0  0  0  0  0  0  0  0  0  0
   -0.1511    1.7991    0.1275 C   0  0  0  0  0  0  0  0  0  0  0  0
    0.7286    0.7192    0.1414 C   0  0  0  0  0  0  0  0  0  0  0  0
    0.2707   -0.6083   -0.0135 C   0  0  0  0  0  0  0  0  0  0  0  0
   -1.0776   -0.8396   -0.1817 C   0  0  0  0  0  0  0  0  0  0  0  0
   -2.6954    3.0996   -0.0499 H   0  0  0  0  0  0  0  0  0  0  0  0
    0.2653    2.7973    0.2526 H   0  0  0  0  0  0  0  0  0  0  0  0
    1.7946    0.8915    0.2752 H   0  0  0  0  0  0  0  0  0  0  0  0
    0.9702   -1.4374    0.0002 H   0  0  0  0  0  0  0  0  0  0  0  0
   -1.4842   -1.8389   -0.3056 H   0  0  0  0  0  0  0  0  0  0  0  0
   -5.0631    2.5872   -0.3302 O   0  0  0  0  0  0  0  0  0  0  0  0
   -4.5428    3.6781   -0.1916 C   0  0  0  0  0  0  0  0  0  0  0  0
   -3.2746    3.9605   -0.0415 O   0  0  0  0  0  0  0  0  0  0  0  0
   -5.3947    4.9697   -0.1783 C   0  0  0  0  0  0  0  0  0  0  0  0
   -5.0338    5.7838   -1.1897 F   0  0  0  0  0  0  0  0  0  0  0  0
   -6.6959    4.6868   -0.3103 F   0  0  0  0  0  0  0  0  0  0  0  0
   -5.2224    5.6400    0.9776 F   0  0  0  0  0  0  0  0  0  0  0  0
  1  8  2  0  0  0  0
  1  4  1  0  0  0  0
  2  1  1  0  0  0  0
  3  2  1  0  0  0  0
  4  5  2  0  0  0  0
  5  6  1  0  0  0  0
  5 10  1  0  0  0  0
  6 11  1  0  0  0  0
  7 12  1  0  0  0  0
  7  6  2  0  0  0  0
  8  7  1  0  0  0  0
  9 16  1  0  0  0  0
 13  8  1  0  0  0  0
 14 15  2  0  0  0  0
 15 17  1  0  0  0  0
 15 16  1  0  0  0  0
 17 20  1  0  0  0  0
 18 17  1  0  0  0  0
 19 17  1  0  0  0  0
M  RAD  3   2   2   3   3   4   2
M  END
