Coordinates from ORCA-job PhN2+~CF3COO-_B3LYPG-6-31G_dp-CH-Scan-d09-49-n800
 OpenBabel11261919373D

 20 19  0  0  0  0  0  0  0  0999 V2000
   -2.0651    0.6756   -0.1116 C   0  0  0  0  0  0  0  0  0  0  0  0
   -3.4769    0.5782   -0.1910 N   0  0  0  0  0  0  0  0  0  0  0  0
   -4.3990   -0.0643   -0.2429 N   0  0  0  0  0  0  0  0  0  0  0  0
   -1.4170    1.9058   -0.1813 C   0  0  0  0  0  0  0  0  0  0  0  0
   -0.0229    1.8908   -0.1080 C   0  0  0  0  0  0  0  0  0  0  0  0
    0.6766    0.6921    0.0339 C   0  0  0  0  0  0  0  0  0  0  0  0
   -0.0076   -0.5290    0.1013 C   0  0  0  0  0  0  0  0  0  0  0  0
   -1.3926   -0.5528    0.0263 C   0  0  0  0  0  0  0  0  0  0  0  0
   -1.9324    2.7627   -0.2831 H   0  0  0  0  0  0  0  0  0  0  0  0
    0.5109    2.8340   -0.1614 H   0  0  0  0  0  0  0  0  0  0  0  0
    1.7609    0.7023    0.0939 H   0  0  0  0  0  0  0  0  0  0  0  0
    0.5379   -1.4603    0.2125 H   0  0  0  0  0  0  0  0  0  0  0  0
   -1.9503   -1.4816    0.0747 H   0  0  0  0  0  0  0  0  0  0  0  0
   -4.3658    2.5375   -0.0895 O   0  0  0  0  0  0  0  0  0  0  0  0
   -4.1227    3.7821   -0.2338 C   0  0  0  0  0  0  0  0  0  0  0  0
   -3.0582    4.3760   -0.4166 O   0  0  0  0  0  0  0  0  0  0  0  0
   -5.4335    4.6267   -0.1638 C   0  0  0  0  0  0  0  0  0  0  0  0
   -5.1897    5.9419   -0.2662 F   0  0  0  0  0  0  0  0  0  0  0  0
   -6.2738    4.2839   -1.1645 F   0  0  0  0  0  0  0  0  0  0  0  0
   -6.0803    4.4173    1.0030 F   0  0  0  0  0  0  0  0  0  0  0  0
  1  8  1  0  0  0  0
  2  1  1  0  0  0  0
  3  2  2  0  0  0  0
  4  1  2  0  0  0  0
  4  5  1  0  0  0  0
  5  6  2  0  0  0  0
  6 11  1  0  0  0  0
  6  7  1  0  0  0  0
  7 12  1  0  0  0  0
  8 13  1  0  0  0  0
  8  7  2  0  0  0  0
  9  4  1  0  0  0  0
 10  5  1  0  0  0  0
 15 17  1  0  0  0  0
 15 14  1  0  0  0  0
 16 15  2  0  0  0  0
 17 20  1  0  0  0  0
 18 17  1  0  0  0  0
 19 17  1  0  0  0  0
M  RAD  2   3   2  14   2
M  END
