Coordinates from ORCA-job PhN2+~CF3COO-_B3LYPG-6-31G_dp-CH-Scan-d09-49-n800
 OpenBabel11261919373D

 20 19  0  0  0  0  0  0  0  0999 V2000
   -1.3836    0.1450   -0.1317 C   0  0  0  0  0  0  0  0  0  0  0  0
   -2.7680    0.2534   -0.2624 N   0  0  0  0  0  0  0  0  0  0  0  0
   -3.8727    0.4039   -0.3607 N   0  0  0  0  0  0  0  0  0  0  0  0
   -0.7602    1.3919    0.0331 C   0  0  0  0  0  0  0  0  0  0  0  0
    0.6457    1.1944    0.1619 C   0  0  0  0  0  0  0  0  0  0  0  0
    1.2632   -0.0516    0.1258 C   0  0  0  0  0  0  0  0  0  0  0  0
    0.5202   -1.2464   -0.0481 C   0  0  0  0  0  0  0  0  0  0  0  0
   -0.8475   -1.1711   -0.1834 C   0  0  0  0  0  0  0  0  0  0  0  0
   -3.1786    4.7509    0.0613 H   0  0  0  0  0  0  0  0  0  0  0  0
    1.2869    2.0665    0.2987 H   0  0  0  0  0  0  0  0  0  0  0  0
    2.3445   -0.1269    0.2336 H   0  0  0  0  0  0  0  0  0  0  0  0
    1.0237   -2.2076   -0.0741 H   0  0  0  0  0  0  0  0  0  0  0  0
   -1.4700   -2.0514   -0.3199 H   0  0  0  0  0  0  0  0  0  0  0  0
   -4.9501    3.2364   -0.2755 O   0  0  0  0  0  0  0  0  0  0  0  0
   -5.0150    4.4349   -0.1812 C   0  0  0  0  0  0  0  0  0  0  0  0
   -3.9953    5.2768    0.0095 O   0  0  0  0  0  0  0  0  0  0  0  0
   -6.3394    5.2240   -0.2692 C   0  0  0  0  0  0  0  0  0  0  0  0
   -6.2977    6.0905   -1.2963 F   0  0  0  0  0  0  0  0  0  0  0  0
   -7.3625    4.3876   -0.4533 F   0  0  0  0  0  0  0  0  0  0  0  0
   -6.5450    5.9178    0.8636 F   0  0  0  0  0  0  0  0  0  0  0  0
  1  4  1  0  0  0  0
  2  1  1  0  0  0  0
  3  2  1  0  0  0  0
  4  5  2  0  0  0  0
  5 10  1  0  0  0  0
  6  5  1  0  0  0  0
  6 11  1  0  0  0  0
  7  6  2  0  0  0  0
  8  1  2  0  0  0  0
  8  7  1  0  0  0  0
 12  7  1  0  0  0  0
 13  8  1  0  0  0  0
 14 15  2  0  0  0  0
 15 16  1  0  0  0  0
 16  9  1  0  0  0  0
 17 15  1  0  0  0  0
 17 20  1  0  0  0  0
 18 17  1  0  0  0  0
 19 17  1  0  0  0  0
M  RAD  3   2   2   3   3   4   2
M  END
