Coordinates from ORCA-job PhN2+~CF3COO-_B3LYPG-6-31G_dp-CH-Scan-d09-49-n800
 OpenBabel11261919373D

 20 19  0  0  0  0  0  0  0  0999 V2000
   -1.3646    0.1424   -0.1388 C   0  0  0  0  0  0  0  0  0  0  0  0
   -2.7471    0.2656   -0.2774 N   0  0  0  0  0  0  0  0  0  0  0  0
   -3.8495    0.4292   -0.3817 N   0  0  0  0  0  0  0  0  0  0  0  0
   -0.7300    1.3833    0.0278 C   0  0  0  0  0  0  0  0  0  0  0  0
    0.6732    1.1716    0.1651 C   0  0  0  0  0  0  0  0  0  0  0  0
    1.2782   -0.0806    0.1347 C   0  0  0  0  0  0  0  0  0  0  0  0
    0.5242   -1.2682   -0.0418 C   0  0  0  0  0  0  0  0  0  0  0  0
   -0.8419   -1.1793   -0.1854 C   0  0  0  0  0  0  0  0  0  0  0  0
   -3.1972    4.8182    0.0428 H   0  0  0  0  0  0  0  0  0  0  0  0
    1.3225    2.0374    0.3044 H   0  0  0  0  0  0  0  0  0  0  0  0
    2.3580   -0.1668    0.2492 H   0  0  0  0  0  0  0  0  0  0  0  0
    1.0181   -2.2344   -0.0634 H   0  0  0  0  0  0  0  0  0  0  0  0
   -1.4725   -2.0534   -0.3243 H   0  0  0  0  0  0  0  0  0  0  0  0
   -4.9379    3.2670   -0.2765 O   0  0  0  0  0  0  0  0  0  0  0  0
   -5.0283    4.4638   -0.1830 C   0  0  0  0  0  0  0  0  0  0  0  0
   -4.0248    5.3275   -0.0021 O   0  0  0  0  0  0  0  0  0  0  0  0
   -6.3698    5.2244   -0.2616 C   0  0  0  0  0  0  0  0  0  0  0  0
   -6.3582    6.0816   -1.2973 F   0  0  0  0  0  0  0  0  0  0  0  0
   -7.3774    4.3652   -0.4258 F   0  0  0  0  0  0  0  0  0  0  0  0
   -6.5765    5.9246    0.8669 F   0  0  0  0  0  0  0  0  0  0  0  0
  1  4  1  0  0  0  0
  2  1  1  0  0  0  0
  3  2  1  0  0  0  0
  4  5  2  0  0  0  0
  5 10  1  0  0  0  0
  6  5  1  0  0  0  0
  6 11  1  0  0  0  0
  7  6  2  0  0  0  0
  8  1  2  0  0  0  0
  8  7  1  0  0  0  0
 12  7  1  0  0  0  0
 13  8  1  0  0  0  0
 14 15  2  0  0  0  0
 15 16  1  0  0  0  0
 16  9  1  0  0  0  0
 17 15  1  0  0  0  0
 17 20  1  0  0  0  0
 18 17  1  0  0  0  0
 19 17  1  0  0  0  0
M  RAD  3   2   2   3   3   4   2
M  END
