Coordinates from ORCA-job PhN2+~CF3COO-_B3LYPG-6-31G_dp-CH-Scan-d09-49-n800
 OpenBabel11261919373D

 20 19  0  0  0  0  0  0  0  0999 V2000
   -1.2993    0.1347   -0.1709 C   0  0  0  0  0  0  0  0  0  0  0  0
   -2.6736    0.3032   -0.3426 N   0  0  0  0  0  0  0  0  0  0  0  0
   -3.7665    0.5049   -0.4772 N   0  0  0  0  0  0  0  0  0  0  0  0
   -0.6268    1.3568   -0.0180 C   0  0  0  0  0  0  0  0  0  0  0  0
    0.7653    1.1010    0.1550 C   0  0  0  0  0  0  0  0  0  0  0  0
    1.3272   -0.1714    0.1667 C   0  0  0  0  0  0  0  0  0  0  0  0
    0.5367   -1.3366   -0.0000 C   0  0  0  0  0  0  0  0  0  0  0  0
   -0.8220   -1.2049   -0.1765 C   0  0  0  0  0  0  0  0  0  0  0  0
   -3.2675    5.0061   -0.0270 H   0  0  0  0  0  0  0  0  0  0  0  0
    1.4408    1.9474    0.2890 H   0  0  0  0  0  0  0  0  0  0  0  0
    2.4006   -0.2917    0.3076 H   0  0  0  0  0  0  0  0  0  0  0  0
    0.9975   -2.3192    0.0114 H   0  0  0  0  0  0  0  0  0  0  0  0
   -1.4791   -2.0601   -0.3105 H   0  0  0  0  0  0  0  0  0  0  0  0
   -4.9261    3.3611   -0.2964 O   0  0  0  0  0  0  0  0  0  0  0  0
   -5.0818    4.5504   -0.1958 C   0  0  0  0  0  0  0  0  0  0  0  0
   -4.1228    5.4693   -0.0438 O   0  0  0  0  0  0  0  0  0  0  0  0
   -6.4657    5.2345   -0.2278 C   0  0  0  0  0  0  0  0  0  0  0  0
   -6.5318    6.1035   -1.2514 F   0  0  0  0  0  0  0  0  0  0  0  0
   -7.4274    4.3216   -0.3758 F   0  0  0  0  0  0  0  0  0  0  0  0
   -6.6791    5.9081    0.9156 F   0  0  0  0  0  0  0  0  0  0  0  0
  1  4  1  0  0  0  0
  2  1  1  0  0  0  0
  3  2  1  0  0  0  0
  4  5  2  0  0  0  0
  5  6  1  0  0  0  0
  5 10  1  0  0  0  0
  6 11  1  0  0  0  0
  7 12  1  0  0  0  0
  7  6  2  0  0  0  0
  8  1  2  0  0  0  0
  8  7  1  0  0  0  0
 13  8  1  0  0  0  0
 14 15  2  0  0  0  0
 15 16  1  0  0  0  0
 16  9  1  0  0  0  0
 17 15  1  0  0  0  0
 17 20  1  0  0  0  0
 18 17  1  0  0  0  0
 19 17  1  0  0  0  0
M  RAD  3   2   2   3   3   4   2
M  END
