Coordinates from ORCA-job PhN2+~CF3COO-_B3LYPG-6-31G_dp-CH-Scan-d09-49-n800
 OpenBabel11261919373D

 20 19  0  0  0  0  0  0  0  0999 V2000
   -1.4495    0.1578   -0.1433 C   0  0  0  0  0  0  0  0  0  0  0  0
   -2.8353    0.2163   -0.2854 N   0  0  0  0  0  0  0  0  0  0  0  0
   -3.9446    0.3242   -0.3867 N   0  0  0  0  0  0  0  0  0  0  0  0
   -0.8675    1.4262    0.0098 C   0  0  0  0  0  0  0  0  0  0  0  0
    0.5429    1.2781    0.1489 C   0  0  0  0  0  0  0  0  0  0  0  0
    1.2018    0.0530    0.1321 C   0  0  0  0  0  0  0  0  0  0  0  0
    0.5001   -1.1677   -0.0309 C   0  0  0  0  0  0  0  0  0  0  0  0
   -0.8685   -1.1397   -0.1751 C   0  0  0  0  0  0  0  0  0  0  0  0
   -3.1065    4.5072    0.0237 H   0  0  0  0  0  0  0  0  0  0  0  0
    1.1537    2.1730    0.2780 H   0  0  0  0  0  0  0  0  0  0  0  0
    2.2843    0.0155    0.2470 H   0  0  0  0  0  0  0  0  0  0  0  0
    1.0353   -2.1119   -0.0418 H   0  0  0  0  0  0  0  0  0  0  0  0
   -1.4604   -2.0420   -0.3040 H   0  0  0  0  0  0  0  0  0  0  0  0
   -4.9933    3.1302   -0.2974 O   0  0  0  0  0  0  0  0  0  0  0  0
   -4.9652    4.3298   -0.1923 C   0  0  0  0  0  0  0  0  0  0  0  0
   -3.8838    5.0913   -0.0114 O   0  0  0  0  0  0  0  0  0  0  0  0
   -6.2284    5.2162   -0.2484 C   0  0  0  0  0  0  0  0  0  0  0  0
   -6.1247    6.1155   -1.2424 F   0  0  0  0  0  0  0  0  0  0  0  0
   -7.3109    4.4653   -0.4591 F   0  0  0  0  0  0  0  0  0  0  0  0
   -6.3811    5.8807    0.9105 F   0  0  0  0  0  0  0  0  0  0  0  0
  1  4  1  0  0  0  0
  2  1  1  0  0  0  0
  3  2  1  0  0  0  0
  4  5  2  0  0  0  0
  5 10  1  0  0  0  0
  6  5  1  0  0  0  0
  6 11  1  0  0  0  0
  7  6  2  0  0  0  0
  8  1  2  0  0  0  0
  8  7  1  0  0  0  0
 12  7  1  0  0  0  0
 13  8  1  0  0  0  0
 14 15  2  0  0  0  0
 15 16  1  0  0  0  0
 16  9  1  0  0  0  0
 17 15  1  0  0  0  0
 17 20  1  0  0  0  0
 18 17  1  0  0  0  0
 19 17  1  0  0  0  0
M  RAD  3   2   2   3   3   4   2
M  END
