Coordinates from ORCA-job PhN2+~CF3COO-_B3LYPG-6-31G_dp-CH-Scan-d09-49-n800
 OpenBabel11261919373D

 20 19  0  0  0  0  0  0  0  0999 V2000
   -2.0382    0.5802   -0.3208 C   0  0  0  0  0  0  0  0  0  0  0  0
   -3.3819    0.3660   -0.6575 N   0  0  0  0  0  0  0  0  0  0  0  0
   -4.3446   -0.0978   -0.9804 N   0  0  0  0  0  0  0  0  0  0  0  0
   -1.5023    1.8724   -0.2807 C   0  0  0  0  0  0  0  0  0  0  0  0
   -0.1318    1.9140    0.0170 C   0  0  0  0  0  0  0  0  0  0  0  0
    0.6148    0.7620    0.2626 C   0  0  0  0  0  0  0  0  0  0  0  0
    0.0186   -0.5105    0.2113 C   0  0  0  0  0  0  0  0  0  0  0  0
   -1.3257   -0.6225   -0.0889 C   0  0  0  0  0  0  0  0  0  0  0  0
   -2.2781    3.0017   -0.4503 H   0  0  0  0  0  0  0  0  0  0  0  0
    0.3595    2.8822    0.0672 H   0  0  0  0  0  0  0  0  0  0  0  0
    1.6720    0.8419    0.5014 H   0  0  0  0  0  0  0  0  0  0  0  0
    0.6037   -1.4032    0.4046 H   0  0  0  0  0  0  0  0  0  0  0  0
   -1.8215   -1.5865   -0.1443 H   0  0  0  0  0  0  0  0  0  0  0  0
   -4.5584    2.4243    0.0464 O   0  0  0  0  0  0  0  0  0  0  0  0
   -4.2341    3.5996   -0.1798 C   0  0  0  0  0  0  0  0  0  0  0  0
   -3.0898    4.0483   -0.5071 O   0  0  0  0  0  0  0  0  0  0  0  0
   -5.3180    4.6992   -0.0319 C   0  0  0  0  0  0  0  0  0  0  0  0
   -5.3123    5.5351   -1.0887 F   0  0  0  0  0  0  0  0  0  0  0  0
   -6.5514    4.1784    0.0750 F   0  0  0  0  0  0  0  0  0  0  0  0
   -5.0821    5.4345    1.0766 F   0  0  0  0  0  0  0  0  0  0  0  0
  1  4  2  0  0  0  0
  1  8  1  0  0  0  0
  2  1  1  0  0  0  0
  3  2  1  0  0  0  0
  4  5  1  0  0  0  0
  5 10  1  0  0  0  0
  5  6  2  0  0  0  0
  6 11  1  0  0  0  0
  7  6  1  0  0  0  0
  7 12  1  0  0  0  0
  8  7  2  0  0  0  0
 13  8  1  0  0  0  0
 15 17  1  0  0  0  0
 15 14  2  0  0  0  0
 16  9  1  0  0  0  0
 16 15  1  0  0  0  0
 17 19  1  0  0  0  0
 17 20  1  0  0  0  0
 18 17  1  0  0  0  0
M  RAD  3   2   2   3   3   4   2
M  END
