Coordinates from ORCA-job PhN2+~CF3COO-_B3LYPG-6-31G_dp-CH-Scan-d09-49-n800
 OpenBabel11261919373D

 20 19  0  0  0  0  0  0  0  0999 V2000
   -1.6249    0.2149   -0.1550 C   0  0  0  0  0  0  0  0  0  0  0  0
   -3.0077    0.1580   -0.3046 N   0  0  0  0  0  0  0  0  0  0  0  0
   -4.1199    0.1636   -0.4206 N   0  0  0  0  0  0  0  0  0  0  0  0
   -1.1334    1.5214    0.0029 C   0  0  0  0  0  0  0  0  0  0  0  0
    0.2807    1.4848    0.1505 C   0  0  0  0  0  0  0  0  0  0  0  0
    1.0310    0.3128    0.1363 C   0  0  0  0  0  0  0  0  0  0  0  0
    0.4246   -0.9561   -0.0316 C   0  0  0  0  0  0  0  0  0  0  0  0
   -0.9417   -1.0317   -0.1836 C   0  0  0  0  0  0  0  0  0  0  0  0
   -2.9484    3.9322    0.0029 H   0  0  0  0  0  0  0  0  0  0  0  0
    0.8184    2.4238    0.2843 H   0  0  0  0  0  0  0  0  0  0  0  0
    2.1121    0.3584    0.2576 H   0  0  0  0  0  0  0  0  0  0  0  0
    1.0286   -1.8575   -0.0401 H   0  0  0  0  0  0  0  0  0  0  0  0
   -1.4617   -1.9765   -0.3164 H   0  0  0  0  0  0  0  0  0  0  0  0
   -5.0521    2.8891   -0.3175 O   0  0  0  0  0  0  0  0  0  0  0  0
   -4.8166    4.0658   -0.1923 C   0  0  0  0  0  0  0  0  0  0  0  0
   -3.6279    4.6334   -0.0123 O   0  0  0  0  0  0  0  0  0  0  0  0
   -5.9185    5.1479   -0.2251 C   0  0  0  0  0  0  0  0  0  0  0  0
   -5.6976    6.0097   -1.2335 F   0  0  0  0  0  0  0  0  0  0  0  0
   -7.1168    4.5847   -0.3979 F   0  0  0  0  0  0  0  0  0  0  0  0
   -5.9298    5.8402    0.9279 F   0  0  0  0  0  0  0  0  0  0  0  0
  1  4  1  0  0  0  0
  2  1  1  0  0  0  0
  3  2  1  0  0  0  0
  4  5  2  0  0  0  0
  5 10  1  0  0  0  0
  6  5  1  0  0  0  0
  6 11  1  0  0  0  0
  7  6  2  0  0  0  0
  8  1  2  0  0  0  0
  8  7  1  0  0  0  0
 12  7  1  0  0  0  0
 13  8  1  0  0  0  0
 14 15  2  0  0  0  0
 15 16  1  0  0  0  0
 16  9  1  0  0  0  0
 17 15  1  0  0  0  0
 17 20  1  0  0  0  0
 18 17  1  0  0  0  0
 19 17  1  0  0  0  0
M  RAD  3   2   2   3   3   4   2
M  END
