Coordinates from ORCA-job PhN2+~CF3COO-_B3LYPG-6-31G_dp-CH-Scan-d09-49-n800
 OpenBabel11261919373D

 20 19  0  0  0  0  0  0  0  0999 V2000
   -2.0614    0.6760   -0.1265 C   0  0  0  0  0  0  0  0  0  0  0  0
   -3.4723    0.5761   -0.2235 N   0  0  0  0  0  0  0  0  0  0  0  0
   -4.3930   -0.0663   -0.2946 N   0  0  0  0  0  0  0  0  0  0  0  0
   -1.4102    1.9041   -0.2029 C   0  0  0  0  0  0  0  0  0  0  0  0
   -0.0169    1.8874   -0.1151 C   0  0  0  0  0  0  0  0  0  0  0  0
    0.6786    0.6890    0.0485 C   0  0  0  0  0  0  0  0  0  0  0  0
   -0.0086   -0.5302    0.1223 C   0  0  0  0  0  0  0  0  0  0  0  0
   -1.3925   -0.5524    0.0318 C   0  0  0  0  0  0  0  0  0  0  0  0
   -1.9492    2.8030   -0.3250 H   0  0  0  0  0  0  0  0  0  0  0  0
    0.5202    2.8283   -0.1735 H   0  0  0  0  0  0  0  0  0  0  0  0
    1.7622    0.6979    0.1208 H   0  0  0  0  0  0  0  0  0  0  0  0
    0.5339   -1.4611    0.2505 H   0  0  0  0  0  0  0  0  0  0  0  0
   -1.9524   -1.4797    0.0842 H   0  0  0  0  0  0  0  0  0  0  0  0
   -4.3692    2.5344   -0.0681 O   0  0  0  0  0  0  0  0  0  0  0  0
   -4.1296    3.7749   -0.2376 C   0  0  0  0  0  0  0  0  0  0  0  0
   -3.0681    4.3625   -0.4615 O   0  0  0  0  0  0  0  0  0  0  0  0
   -5.4338    4.6267   -0.1451 C   0  0  0  0  0  0  0  0  0  0  0  0
   -5.1848    5.9406   -0.2507 F   0  0  0  0  0  0  0  0  0  0  0  0
   -6.2905    4.2881   -1.1332 F   0  0  0  0  0  0  0  0  0  0  0  0
   -6.0638    4.4198    1.0310 F   0  0  0  0  0  0  0  0  0  0  0  0
  1  8  1  0  0  0  0
  2  1  1  0  0  0  0
  3  2  2  0  0  0  0
  4  1  2  0  0  0  0
  4  5  1  0  0  0  0
  5  6  2  0  0  0  0
  6 11  1  0  0  0  0
  6  7  1  0  0  0  0
  7 12  1  0  0  0  0
  8 13  1  0  0  0  0
  8  7  2  0  0  0  0
  9  4  1  0  0  0  0
 10  5  1  0  0  0  0
 15 17  1  0  0  0  0
 15 14  1  0  0  0  0
 16 15  2  0  0  0  0
 17 20  1  0  0  0  0
 18 17  1  0  0  0  0
 19 17  1  0  0  0  0
M  RAD  2   3   2  14   2
M  END
