Coordinates from ORCA-job PhN2+~CF3COO-_B3LYPG-6-31G_dp-CH-Scan-d09-49-n800
 OpenBabel11261919373D

 20 19  0  0  0  0  0  0  0  0999 V2000
   -1.3018    0.1351   -0.1694 C   0  0  0  0  0  0  0  0  0  0  0  0
   -2.6765    0.3020   -0.3401 N   0  0  0  0  0  0  0  0  0  0  0  0
   -3.7701    0.5018   -0.4708 N   0  0  0  0  0  0  0  0  0  0  0  0
   -0.6310    1.3578   -0.0140 C   0  0  0  0  0  0  0  0  0  0  0  0
    0.7616    1.1035    0.1576 C   0  0  0  0  0  0  0  0  0  0  0  0
    1.3253   -0.1681    0.1660 C   0  0  0  0  0  0  0  0  0  0  0  0
    0.5363   -1.3340   -0.0030 C   0  0  0  0  0  0  0  0  0  0  0  0
   -0.8227   -1.2038   -0.1784 C   0  0  0  0  0  0  0  0  0  0  0  0
   -3.2643    5.0000   -0.0278 H   0  0  0  0  0  0  0  0  0  0  0  0
    1.4360    1.9505    0.2932 H   0  0  0  0  0  0  0  0  0  0  0  0
    2.3989   -0.2872    0.3061 H   0  0  0  0  0  0  0  0  0  0  0  0
    0.9985   -2.3160    0.0059 H   0  0  0  0  0  0  0  0  0  0  0  0
   -1.4786   -2.0596   -0.3139 H   0  0  0  0  0  0  0  0  0  0  0  0
   -4.9260    3.3575   -0.2948 O   0  0  0  0  0  0  0  0  0  0  0  0
   -5.0795    4.5473   -0.1958 C   0  0  0  0  0  0  0  0  0  0  0  0
   -4.1188    5.4646   -0.0451 O   0  0  0  0  0  0  0  0  0  0  0  0
   -6.4621    5.2339   -0.2287 C   0  0  0  0  0  0  0  0  0  0  0  0
   -6.5270    6.1008   -1.2541 F   0  0  0  0  0  0  0  0  0  0  0  0
   -7.4256    4.3225   -0.3743 F   0  0  0  0  0  0  0  0  0  0  0  0
   -6.6739    5.9104    0.9134 F   0  0  0  0  0  0  0  0  0  0  0  0
  1  4  1  0  0  0  0
  2  1  1  0  0  0  0
  3  2  1  0  0  0  0
  4  5  2  0  0  0  0
  5  6  1  0  0  0  0
  5 10  1  0  0  0  0
  6 11  1  0  0  0  0
  7 12  1  0  0  0  0
  7  6  2  0  0  0  0
  8  1  2  0  0  0  0
  8  7  1  0  0  0  0
 13  8  1  0  0  0  0
 14 15  2  0  0  0  0
 15 16  1  0  0  0  0
 16  9  1  0  0  0  0
 17 15  1  0  0  0  0
 17 20  1  0  0  0  0
 18 17  1  0  0  0  0
 19 17  1  0  0  0  0
M  RAD  3   2   2   3   3   4   2
M  END
