Coordinates from ORCA-job PhN2+~CF3COO-_B3LYPG-6-31G_dp-CH-Scan-d09-49-n800
 OpenBabel11261919373D

 20 19  0  0  0  0  0  0  0  0999 V2000
   -2.0739    0.6753   -0.1018 C   0  0  0  0  0  0  0  0  0  0  0  0
   -3.4860    0.5791   -0.1695 N   0  0  0  0  0  0  0  0  0  0  0  0
   -4.4071   -0.0666   -0.2078 N   0  0  0  0  0  0  0  0  0  0  0  0
   -1.4332    1.9092   -0.1678 C   0  0  0  0  0  0  0  0  0  0  0  0
   -0.0386    1.9008   -0.1042 C   0  0  0  0  0  0  0  0  0  0  0  0
    0.6681    0.7049    0.0237 C   0  0  0  0  0  0  0  0  0  0  0  0
   -0.0097   -0.5198    0.0874 C   0  0  0  0  0  0  0  0  0  0  0  0
   -1.3954   -0.5503    0.0229 C   0  0  0  0  0  0  0  0  0  0  0  0
   -1.9065    2.6877   -0.2521 H   0  0  0  0  0  0  0  0  0  0  0  0
    0.4883    2.8480   -0.1549 H   0  0  0  0  0  0  0  0  0  0  0  0
    1.7527    0.7201    0.0754 H   0  0  0  0  0  0  0  0  0  0  0  0
    0.5414   -1.4491    0.1877 H   0  0  0  0  0  0  0  0  0  0  0  0
   -1.9482   -1.4820    0.0692 H   0  0  0  0  0  0  0  0  0  0  0  0
   -4.3600    2.5363   -0.1038 O   0  0  0  0  0  0  0  0  0  0  0  0
   -4.1096    3.7832   -0.2327 C   0  0  0  0  0  0  0  0  0  0  0  0
   -3.0441    4.3783   -0.3912 O   0  0  0  0  0  0  0  0  0  0  0  0
   -5.4236    4.6255   -0.1753 C   0  0  0  0  0  0  0  0  0  0  0  0
   -5.1799    5.9414   -0.2685 F   0  0  0  0  0  0  0  0  0  0  0  0
   -6.2516    4.2869   -1.1877 F   0  0  0  0  0  0  0  0  0  0  0  0
   -6.0846    4.4101    0.9826 F   0  0  0  0  0  0  0  0  0  0  0  0
  1  8  2  0  0  0  0
  2  1  1  0  0  0  0
  3  2  2  0  0  0  0
  4  5  2  0  0  0  0
  4  1  1  0  0  0  0
  5  6  1  0  0  0  0
  6 11  1  0  0  0  0
  6  7  2  0  0  0  0
  7 12  1  0  0  0  0
  8 13  1  0  0  0  0
  8  7  1  0  0  0  0
  9  4  1  0  0  0  0
 10  5  1  0  0  0  0
 15 17  1  0  0  0  0
 15 14  1  0  0  0  0
 16 15  2  0  0  0  0
 17 20  1  0  0  0  0
 18 17  1  0  0  0  0
 19 17  1  0  0  0  0
M  RAD  2   3   2  14   2
M  END
