Coordinates from ORCA-job PhN2+~CF3COO-_B3LYPG-6-31G_dp-CH-Scan-d09-49-n800
 OpenBabel11261919373D

 20 19  0  0  0  0  0  0  0  0999 V2000
   -1.3032    0.7311   -1.2193 C   0  0  0  0  0  0  0  0  0  0  0  0
   -2.1738    0.8657   -2.3001 N   0  0  0  0  0  0  0  0  0  0  0  0
   -2.8047    0.9890   -3.2158 N   0  0  0  0  0  0  0  0  0  0  0  0
    0.0267    0.9755   -1.5925 C   0  0  0  0  0  0  0  0  0  0  0  0
    0.8656    0.8108   -0.4509 C   0  0  0  0  0  0  0  0  0  0  0  0
    0.3992    0.4524    0.8099 C   0  0  0  0  0  0  0  0  0  0  0  0
   -0.9793    0.2325    1.0608 C   0  0  0  0  0  0  0  0  0  0  0  0
   -1.8805    0.3730    0.0293 C   0  0  0  0  0  0  0  0  0  0  0  0
   -2.8888    4.7453   -0.6922 H   0  0  0  0  0  0  0  0  0  0  0  0
    1.9395    0.9706   -0.5619 H   0  0  0  0  0  0  0  0  0  0  0  0
    1.0990    0.3353    1.6364 H   0  0  0  0  0  0  0  0  0  0  0  0
   -1.3190   -0.0426    2.0543 H   0  0  0  0  0  0  0  0  0  0  0  0
   -2.9498    0.2317    0.1573 H   0  0  0  0  0  0  0  0  0  0  0  0
   -4.0489    2.7086   -0.8660 O   0  0  0  0  0  0  0  0  0  0  0  0
   -4.3569    3.6749   -0.2145 C   0  0  0  0  0  0  0  0  0  0  0  0
   -3.6834    4.8248   -0.1365 O   0  0  0  0  0  0  0  0  0  0  0  0
   -5.6268    3.7419    0.6618 C   0  0  0  0  0  0  0  0  0  0  0  0
   -6.4458    4.7074    0.2133 F   0  0  0  0  0  0  0  0  0  0  0  0
   -6.2714    2.5746    0.6233 F   0  0  0  0  0  0  0  0  0  0  0  0
   -5.2993    4.0164    1.9350 F   0  0  0  0  0  0  0  0  0  0  0  0
  1  8  1  0  0  0  0
  2  1  1  0  0  0  0
  3  2  1  0  0  0  0
  4  1  2  0  0  0  0
  4  5  1  0  0  0  0
  5  6  2  0  0  0  0
  6  7  1  0  0  0  0
  6 11  1  0  0  0  0
  7 12  1  0  0  0  0
  8 13  1  0  0  0  0
  8  7  2  0  0  0  0
  9 16  1  0  0  0  0
 10  5  1  0  0  0  0
 14 15  2  0  0  0  0
 15 16  1  0  0  0  0
 15 17  1  0  0  0  0
 17 20  1  0  0  0  0
 18 17  1  0  0  0  0
 19 17  1  0  0  0  0
M  RAD  3   2   2   3   3   4   2
M  END
