Coordinates from ORCA-job PhN2+~CF3COO-_B3LYPG-6-31G_dp-CH-Scan-d09-49-n800
 OpenBabel11261919373D

 20 19  0  0  0  0  0  0  0  0999 V2000
   -1.5852    0.2020   -0.1540 C   0  0  0  0  0  0  0  0  0  0  0  0
   -2.9694    0.1707   -0.3032 N   0  0  0  0  0  0  0  0  0  0  0  0
   -4.0814    0.1986   -0.4187 N   0  0  0  0  0  0  0  0  0  0  0  0
   -1.0731    1.5010   -0.0008 C   0  0  0  0  0  0  0  0  0  0  0  0
    0.3409    1.4387    0.1464 C   0  0  0  0  0  0  0  0  0  0  0  0
    1.0705    0.2538    0.1361 C   0  0  0  0  0  0  0  0  0  0  0  0
    0.4421   -1.0052   -0.0273 C   0  0  0  0  0  0  0  0  0  0  0  0
   -0.9253   -1.0573   -0.1787 C   0  0  0  0  0  0  0  0  0  0  0  0
   -2.9794    4.0624    0.0022 H   0  0  0  0  0  0  0  0  0  0  0  0
    0.8959    2.3684    0.2768 H   0  0  0  0  0  0  0  0  0  0  0  0
    2.1524    0.2807    0.2570 H   0  0  0  0  0  0  0  0  0  0  0  0
    1.0305   -1.9170   -0.0328 H   0  0  0  0  0  0  0  0  0  0  0  0
   -1.4621   -1.9932   -0.3082 H   0  0  0  0  0  0  0  0  0  0  0  0
   -5.0379    2.9401   -0.3144 O   0  0  0  0  0  0  0  0  0  0  0  0
   -4.8496    4.1252   -0.1943 C   0  0  0  0  0  0  0  0  0  0  0  0
   -3.6816    4.7385   -0.0168 O   0  0  0  0  0  0  0  0  0  0  0  0
   -5.9912    5.1649   -0.2277 C   0  0  0  0  0  0  0  0  0  0  0  0
   -5.7942    6.0451   -1.2250 F   0  0  0  0  0  0  0  0  0  0  0  0
   -7.1651    4.5579   -0.4173 F   0  0  0  0  0  0  0  0  0  0  0  0
   -6.0386    5.8435    0.9324 F   0  0  0  0  0  0  0  0  0  0  0  0
  1  4  1  0  0  0  0
  2  1  1  0  0  0  0
  3  2  1  0  0  0  0
  4  5  2  0  0  0  0
  5 10  1  0  0  0  0
  6  5  1  0  0  0  0
  6 11  1  0  0  0  0
  7  6  2  0  0  0  0
  8  1  2  0  0  0  0
  8  7  1  0  0  0  0
 12  7  1  0  0  0  0
 13  8  1  0  0  0  0
 14 15  2  0  0  0  0
 15 16  1  0  0  0  0
 16  9  1  0  0  0  0
 17 15  1  0  0  0  0
 17 20  1  0  0  0  0
 18 17  1  0  0  0  0
 19 17  1  0  0  0  0
M  RAD  3   2   2   3   3   4   2
M  END
