Coordinates from ORCA-job PhN2+~CF3COO-_B3LYPG-6-31G_dp-CH-Scan-d09-49-n800
 OpenBabel11261919373D

 20 19  0  0  0  0  0  0  0  0999 V2000
   -1.8230    0.2812   -0.1678 C   0  0  0  0  0  0  0  0  0  0  0  0
   -3.1929    0.1015   -0.3225 N   0  0  0  0  0  0  0  0  0  0  0  0
   -4.2997    0.0118   -0.4428 N   0  0  0  0  0  0  0  0  0  0  0  0
   -1.4294    1.6222   -0.0172 C   0  0  0  0  0  0  0  0  0  0  0  0
   -0.0217    1.7077    0.1357 C   0  0  0  0  0  0  0  0  0  0  0  0
    0.8224    0.6004    0.1332 C   0  0  0  0  0  0  0  0  0  0  0  0
    0.3215   -0.7124   -0.0263 C   0  0  0  0  0  0  0  0  0  0  0  0
   -1.0344   -0.8998   -0.1826 C   0  0  0  0  0  0  0  0  0  0  0  0
   -2.7855    3.3439   -0.0192 H   0  0  0  0  0  0  0  0  0  0  0  0
    0.4320    2.6897    0.2638 H   0  0  0  0  0  0  0  0  0  0  0  0
    1.8951    0.7368    0.2576 H   0  0  0  0  0  0  0  0  0  0  0  0
    0.9952   -1.5628   -0.0253 H   0  0  0  0  0  0  0  0  0  0  0  0
   -1.4741   -1.8849   -0.3095 H   0  0  0  0  0  0  0  0  0  0  0  0
   -5.0717    2.6694   -0.3376 O   0  0  0  0  0  0  0  0  0  0  0  0
   -4.6310    3.7889   -0.1931 C   0  0  0  0  0  0  0  0  0  0  0  0
   -3.3762    4.1502   -0.0174 O   0  0  0  0  0  0  0  0  0  0  0  0
   -5.5502    5.0320   -0.1982 C   0  0  0  0  0  0  0  0  0  0  0  0
   -5.2086    5.8654   -1.1989 F   0  0  0  0  0  0  0  0  0  0  0  0
   -6.8274    4.6732   -0.3628 F   0  0  0  0  0  0  0  0  0  0  0  0
   -5.4420    5.7043    0.9629 F   0  0  0  0  0  0  0  0  0  0  0  0
  1  4  1  0  0  0  0
  2  1  1  0  0  0  0
  3  2  1  0  0  0  0
  4  5  2  0  0  0  0
  5 10  1  0  0  0  0
  6  5  1  0  0  0  0
  6 11  1  0  0  0  0
  7 12  1  0  0  0  0
  7  6  2  0  0  0  0
  8  1  2  0  0  0  0
  8  7  1  0  0  0  0
  9 16  1  0  0  0  0
 13  8  1  0  0  0  0
 14 15  2  0  0  0  0
 15 16  1  0  0  0  0
 17 15  1  0  0  0  0
 17 20  1  0  0  0  0
 18 17  1  0  0  0  0
 19 17  1  0  0  0  0
M  RAD  3   2   2   3   3   4   2
M  END
