Coordinates from ORCA-job PhN2+~CF3COO-_B3LYPG-6-31G_dp-CH-Scan-d09-49-n800
 OpenBabel11261919373D

 20 19  0  0  0  0  0  0  0  0999 V2000
   -1.2968    0.7291   -1.2196 C   0  0  0  0  0  0  0  0  0  0  0  0
   -2.1663    0.8678   -2.3007 N   0  0  0  0  0  0  0  0  0  0  0  0
   -2.7958    0.9943   -3.2170 N   0  0  0  0  0  0  0  0  0  0  0  0
    0.0340    0.9685   -1.5925 C   0  0  0  0  0  0  0  0  0  0  0  0
    0.8722    0.8003   -0.4509 C   0  0  0  0  0  0  0  0  0  0  0  0
    0.4041    0.4439    0.8098 C   0  0  0  0  0  0  0  0  0  0  0  0
   -0.9753    0.2288    1.0604 C   0  0  0  0  0  0  0  0  0  0  0  0
   -1.8756    0.3725    0.0287 C   0  0  0  0  0  0  0  0  0  0  0  0
   -2.9058    4.7601   -0.7010 H   0  0  0  0  0  0  0  0  0  0  0  0
    1.9467    0.9559   -0.5618 H   0  0  0  0  0  0  0  0  0  0  0  0
    1.1033    0.3243    1.6365 H   0  0  0  0  0  0  0  0  0  0  0  0
   -1.3161   -0.0453    2.0537 H   0  0  0  0  0  0  0  0  0  0  0  0
   -2.9454    0.2344    0.1565 H   0  0  0  0  0  0  0  0  0  0  0  0
   -4.0522    2.7150   -0.8616 O   0  0  0  0  0  0  0  0  0  0  0  0
   -4.3649    3.6821   -0.2136 C   0  0  0  0  0  0  0  0  0  0  0  0
   -3.6988    4.8369   -0.1427 O   0  0  0  0  0  0  0  0  0  0  0  0
   -5.6334    3.7452    0.6649 C   0  0  0  0  0  0  0  0  0  0  0  0
   -6.4604    4.7017    0.2118 F   0  0  0  0  0  0  0  0  0  0  0  0
   -6.2694    2.5729    0.6353 F   0  0  0  0  0  0  0  0  0  0  0  0
   -5.3056    4.0305    1.9356 F   0  0  0  0  0  0  0  0  0  0  0  0
  1  8  1  0  0  0  0
  2  1  1  0  0  0  0
  3  2  1  0  0  0  0
  4  1  2  0  0  0  0
  4  5  1  0  0  0  0
  5  6  2  0  0  0  0
  6  7  1  0  0  0  0
  6 11  1  0  0  0  0
  7 12  1  0  0  0  0
  8 13  1  0  0  0  0
  8  7  2  0  0  0  0
  9 16  1  0  0  0  0
 10  5  1  0  0  0  0
 14 15  2  0  0  0  0
 15 16  1  0  0  0  0
 15 17  1  0  0  0  0
 17 20  1  0  0  0  0
 18 17  1  0  0  0  0
 19 17  1  0  0  0  0
M  RAD  3   2   2   3   3   4   2
M  END
