Coordinates from ORCA-job PhN2+~CF3COO-_B3LYPG-6-31G_dp-CH-Scan-d09-49-n800
 OpenBabel11261919373D

 20 19  0  0  0  0  0  0  0  0999 V2000
   -1.4424    0.1559   -0.1409 C   0  0  0  0  0  0  0  0  0  0  0  0
   -2.8284    0.2195   -0.2800 N   0  0  0  0  0  0  0  0  0  0  0  0
   -3.9367    0.3326   -0.3863 N   0  0  0  0  0  0  0  0  0  0  0  0
   -0.8561    1.4224    0.0118 C   0  0  0  0  0  0  0  0  0  0  0  0
    0.5541    1.2693    0.1487 C   0  0  0  0  0  0  0  0  0  0  0  0
    1.2088    0.0420    0.1299 C   0  0  0  0  0  0  0  0  0  0  0  0
    0.5027   -1.1764   -0.0325 C   0  0  0  0  0  0  0  0  0  0  0  0
   -0.8661   -1.1436   -0.1744 C   0  0  0  0  0  0  0  0  0  0  0  0
   -3.1143    4.5327    0.0309 H   0  0  0  0  0  0  0  0  0  0  0  0
    1.1681    2.1619    0.2777 H   0  0  0  0  0  0  0  0  0  0  0  0
    2.2913    0.0006    0.2431 H   0  0  0  0  0  0  0  0  0  0  0  0
    1.0347   -2.1223   -0.0448 H   0  0  0  0  0  0  0  0  0  0  0  0
   -1.4612   -2.0439   -0.3028 H   0  0  0  0  0  0  0  0  0  0  0  0
   -4.9891    3.1415   -0.2962 O   0  0  0  0  0  0  0  0  0  0  0  0
   -4.9709    4.3411   -0.1905 C   0  0  0  0  0  0  0  0  0  0  0  0
   -3.8959    5.1108   -0.0052 O   0  0  0  0  0  0  0  0  0  0  0  0
   -6.2406    5.2178   -0.2515 C   0  0  0  0  0  0  0  0  0  0  0  0
   -6.1413    6.1155   -1.2474 F   0  0  0  0  0  0  0  0  0  0  0  0
   -7.3168    4.4581   -0.4632 F   0  0  0  0  0  0  0  0  0  0  0  0
   -6.4013    5.8837    0.9054 F   0  0  0  0  0  0  0  0  0  0  0  0
  1  4  1  0  0  0  0
  2  1  1  0  0  0  0
  3  2  1  0  0  0  0
  4  5  2  0  0  0  0
  5 10  1  0  0  0  0
  6  5  1  0  0  0  0
  6 11  1  0  0  0  0
  7  6  2  0  0  0  0
  8  1  2  0  0  0  0
  8  7  1  0  0  0  0
 12  7  1  0  0  0  0
 13  8  1  0  0  0  0
 14 15  2  0  0  0  0
 15 16  1  0  0  0  0
 16  9  1  0  0  0  0
 17 15  1  0  0  0  0
 17 20  1  0  0  0  0
 18 17  1  0  0  0  0
 19 17  1  0  0  0  0
M  RAD  3   2   2   3   3   4   2
M  END
