Coordinates from ORCA-job PhN2+~CF3COO-_B3LYPG-6-31G_dp-CH-Scan-d09-49-n800
 OpenBabel11261919373D

 20 19  0  0  0  0  0  0  0  0999 V2000
   -1.7912    0.2704   -0.1641 C   0  0  0  0  0  0  0  0  0  0  0  0
   -3.1639    0.1100   -0.3165 N   0  0  0  0  0  0  0  0  0  0  0  0
   -4.2722    0.0333   -0.4350 N   0  0  0  0  0  0  0  0  0  0  0  0
   -1.3820    1.6063   -0.0116 C   0  0  0  0  0  0  0  0  0  0  0  0
    0.0275    1.6729    0.1387 C   0  0  0  0  0  0  0  0  0  0  0  0
    0.8574    0.5549    0.1323 C   0  0  0  0  0  0  0  0  0  0  0  0
    0.3396   -0.7515   -0.0291 C   0  0  0  0  0  0  0  0  0  0  0  0
   -1.0186   -0.9216   -0.1831 C   0  0  0  0  0  0  0  0  0  0  0  0
   -2.8146    3.4335   -0.0120 H   0  0  0  0  0  0  0  0  0  0  0  0
    0.4950    2.6484    0.2681 H   0  0  0  0  0  0  0  0  0  0  0  0
    1.9320    0.6770    0.2548 H   0  0  0  0  0  0  0  0  0  0  0  0
    1.0028   -1.6102   -0.0312 H   0  0  0  0  0  0  0  0  0  0  0  0
   -1.4711   -1.9008   -0.3113 H   0  0  0  0  0  0  0  0  0  0  0  0
   -5.0738    2.7015   -0.3346 O   0  0  0  0  0  0  0  0  0  0  0  0
   -4.6633    3.8314   -0.1926 C   0  0  0  0  0  0  0  0  0  0  0  0
   -3.4156    4.2235   -0.0135 O   0  0  0  0  0  0  0  0  0  0  0  0
   -5.6095    5.0536   -0.2044 C   0  0  0  0  0  0  0  0  0  0  0  0
   -5.2814    5.8921   -1.2048 F   0  0  0  0  0  0  0  0  0  0  0  0
   -6.8769    4.6649   -0.3744 F   0  0  0  0  0  0  0  0  0  0  0  0
   -5.5216    5.7293    0.9562 F   0  0  0  0  0  0  0  0  0  0  0  0
  1  4  1  0  0  0  0
  2  1  1  0  0  0  0
  3  2  1  0  0  0  0
  4  5  2  0  0  0  0
  5 10  1  0  0  0  0
  6  5  1  0  0  0  0
  6 11  1  0  0  0  0
  7  6  2  0  0  0  0
  8  1  2  0  0  0  0
  8  7  1  0  0  0  0
 12  7  1  0  0  0  0
 13  8  1  0  0  0  0
 14 15  2  0  0  0  0
 15 16  1  0  0  0  0
 16  9  1  0  0  0  0
 17 15  1  0  0  0  0
 17 20  1  0  0  0  0
 18 17  1  0  0  0  0
 19 17  1  0  0  0  0
M  RAD  3   2   2   3   3   4   2
M  END
