Coordinates from ORCA-job PhN2+~CF3COO-_B3LYPG-6-31G_dp-CH-Scan-d09-49-n800
 OpenBabel11261919373D

 20 19  0  0  0  0  0  0  0  0999 V2000
   -1.3601    0.1420   -0.1398 C   0  0  0  0  0  0  0  0  0  0  0  0
   -2.7423    0.2680   -0.2795 N   0  0  0  0  0  0  0  0  0  0  0  0
   -3.8443    0.4334   -0.3848 N   0  0  0  0  0  0  0  0  0  0  0  0
   -0.7227    1.3814    0.0265 C   0  0  0  0  0  0  0  0  0  0  0  0
    0.6799    1.1665    0.1650 C   0  0  0  0  0  0  0  0  0  0  0  0
    1.2819   -0.0871    0.1358 C   0  0  0  0  0  0  0  0  0  0  0  0
    0.5252   -1.2730   -0.0405 C   0  0  0  0  0  0  0  0  0  0  0  0
   -0.8405   -1.1810   -0.1852 C   0  0  0  0  0  0  0  0  0  0  0  0
   -3.2020    4.8323    0.0408 H   0  0  0  0  0  0  0  0  0  0  0  0
    1.3311    2.0309    0.3043 H   0  0  0  0  0  0  0  0  0  0  0  0
    2.3614   -0.1758    0.2512 H   0  0  0  0  0  0  0  0  0  0  0  0
    1.0169   -2.2404   -0.0612 H   0  0  0  0  0  0  0  0  0  0  0  0
   -1.4730   -2.0537   -0.3241 H   0  0  0  0  0  0  0  0  0  0  0  0
   -4.9369    3.2735   -0.2768 O   0  0  0  0  0  0  0  0  0  0  0  0
   -5.0320    4.4700   -0.1832 C   0  0  0  0  0  0  0  0  0  0  0  0
   -4.0319    5.3379   -0.0034 O   0  0  0  0  0  0  0  0  0  0  0  0
   -6.3766    5.2251   -0.2607 C   0  0  0  0  0  0  0  0  0  0  0  0
   -6.3696    6.0820   -1.2968 F   0  0  0  0  0  0  0  0  0  0  0  0
   -7.3809    4.3619   -0.4235 F   0  0  0  0  0  0  0  0  0  0  0  0
   -6.5849    5.9250    0.8677 F   0  0  0  0  0  0  0  0  0  0  0  0
  1  4  1  0  0  0  0
  2  1  1  0  0  0  0
  3  2  1  0  0  0  0
  4  5  2  0  0  0  0
  5 10  1  0  0  0  0
  6  5  1  0  0  0  0
  6 11  1  0  0  0  0
  7  6  2  0  0  0  0
  8  1  2  0  0  0  0
  8  7  1  0  0  0  0
 12  7  1  0  0  0  0
 13  8  1  0  0  0  0
 14 15  2  0  0  0  0
 15 16  1  0  0  0  0
 16  9  1  0  0  0  0
 17 15  1  0  0  0  0
 17 20  1  0  0  0  0
 18 17  1  0  0  0  0
 19 17  1  0  0  0  0
M  RAD  3   2   2   3   3   4   2
M  END
