Coordinates from ORCA-job PhN2+~CF3COO-_B3LYPG-6-31G_dp-CH-Scan-d09-49-n800
 OpenBabel11261919373D

 20 19  0  0  0  0  0  0  0  0999 V2000
   -1.7740    0.2644   -0.1622 C   0  0  0  0  0  0  0  0  0  0  0  0
   -3.1482    0.1145   -0.3135 N   0  0  0  0  0  0  0  0  0  0  0  0
   -4.2571    0.0452   -0.4311 N   0  0  0  0  0  0  0  0  0  0  0  0
   -1.3565    1.5976   -0.0087 C   0  0  0  0  0  0  0  0  0  0  0  0
    0.0539    1.6539    0.1404 C   0  0  0  0  0  0  0  0  0  0  0  0
    0.8760    0.5304    0.1319 C   0  0  0  0  0  0  0  0  0  0  0  0
    0.3492   -0.7726   -0.0306 C   0  0  0  0  0  0  0  0  0  0  0  0
   -1.0102   -0.9333   -0.1835 C   0  0  0  0  0  0  0  0  0  0  0  0
   -2.8299    3.4818   -0.0081 H   0  0  0  0  0  0  0  0  0  0  0  0
    0.5286    2.6259    0.2704 H   0  0  0  0  0  0  0  0  0  0  0  0
    1.9517    0.6449    0.2536 H   0  0  0  0  0  0  0  0  0  0  0  0
    1.0068   -1.6356   -0.0343 H   0  0  0  0  0  0  0  0  0  0  0  0
   -1.4695   -1.9093   -0.3124 H   0  0  0  0  0  0  0  0  0  0  0  0
   -5.0746    2.7192   -0.3329 O   0  0  0  0  0  0  0  0  0  0  0  0
   -4.6805    3.8546   -0.1923 C   0  0  0  0  0  0  0  0  0  0  0  0
   -3.4371    4.2634   -0.0115 O   0  0  0  0  0  0  0  0  0  0  0  0
   -5.6415    5.0650   -0.2076 C   0  0  0  0  0  0  0  0  0  0  0  0
   -5.3214    5.9059   -1.2084 F   0  0  0  0  0  0  0  0  0  0  0  0
   -6.9033    4.6601   -0.3798 F   0  0  0  0  0  0  0  0  0  0  0  0
   -5.5640    5.7429    0.9523 F   0  0  0  0  0  0  0  0  0  0  0  0
  1  4  1  0  0  0  0
  2  1  1  0  0  0  0
  3  2  1  0  0  0  0
  4  5  2  0  0  0  0
  5 10  1  0  0  0  0
  6  5  1  0  0  0  0
  6 11  1  0  0  0  0
  7  6  2  0  0  0  0
  8  1  2  0  0  0  0
  8  7  1  0  0  0  0
 12  7  1  0  0  0  0
 13  8  1  0  0  0  0
 14 15  2  0  0  0  0
 15 16  1  0  0  0  0
 16  9  1  0  0  0  0
 17 15  1  0  0  0  0
 17 20  1  0  0  0  0
 18 17  1  0  0  0  0
 19 17  1  0  0  0  0
M  RAD  3   2   2   3   3   4   2
M  END
