Coordinates from ORCA-job PhN2+~CF3COO-_B3LYPG-6-31G_dp-CH-Scan-d09-49-n800
 OpenBabel11261919373D

 20 19  0  0  0  0  0  0  0  0999 V2000
   -1.9611    0.3468   -0.2019 C   0  0  0  0  0  0  0  0  0  0  0  0
   -3.3229    0.1197   -0.3839 N   0  0  0  0  0  0  0  0  0  0  0  0
   -4.4323    0.1056   -0.5139 N   0  0  0  0  0  0  0  0  0  0  0  0
   -1.6039    1.6947   -0.0580 C   0  0  0  0  0  0  0  0  0  0  0  0
   -0.2189    1.8668    0.1260 C   0  0  0  0  0  0  0  0  0  0  0  0
    0.6733    0.7952    0.1567 C   0  0  0  0  0  0  0  0  0  0  0  0
    0.2310   -0.5345    0.0027 C   0  0  0  0  0  0  0  0  0  0  0  0
   -1.1148   -0.7846   -0.1825 C   0  0  0  0  0  0  0  0  0  0  0  0
   -2.5491    2.8211   -0.0888 H   0  0  0  0  0  0  0  0  0  0  0  0
    0.1701    2.8748    0.2501 H   0  0  0  0  0  0  0  0  0  0  0  0
    1.7346    0.9811    0.3033 H   0  0  0  0  0  0  0  0  0  0  0  0
    0.9388   -1.3559    0.0298 H   0  0  0  0  0  0  0  0  0  0  0  0
   -1.5062   -1.7895   -0.3059 H   0  0  0  0  0  0  0  0  0  0  0  0
   -5.0870    2.5188   -0.2941 O   0  0  0  0  0  0  0  0  0  0  0  0
   -4.4854    3.5860   -0.1887 C   0  0  0  0  0  0  0  0  0  0  0  0
   -3.2224    3.8075   -0.0931 O   0  0  0  0  0  0  0  0  0  0  0  0
   -5.3024    4.9045   -0.1628 C   0  0  0  0  0  0  0  0  0  0  0  0
   -4.9515    5.7005   -1.1948 F   0  0  0  0  0  0  0  0  0  0  0  0
   -6.6206    4.6751   -0.2474 F   0  0  0  0  0  0  0  0  0  0  0  0
   -5.0710    5.5853    0.9791 F   0  0  0  0  0  0  0  0  0  0  0  0
  1  8  2  0  0  0  0
  1  4  1  0  0  0  0
  2  1  1  0  0  0  0
  3  2  1  0  0  0  0
  4  5  2  0  0  0  0
  5  6  1  0  0  0  0
  5 10  1  0  0  0  0
  6 11  1  0  0  0  0
  7 12  1  0  0  0  0
  7  6  2  0  0  0  0
  8  7  1  0  0  0  0
 13  8  1  0  0  0  0
 14 15  2  0  0  0  0
 15 17  1  0  0  0  0
 15 16  1  0  0  0  0
 16  9  1  0  0  0  0
 17 20  1  0  0  0  0
 18 17  1  0  0  0  0
 19 17  1  0  0  0  0
M  RAD  3   2   2   3   3   4   2
M  END
