Coordinates from ORCA-job PhN2+~CF3COO-_B3LYPG-6-31G_dp-CH-Scan-d09-49-n800
 OpenBabel11261919373D

 20 19  0  0  0  0  0  0  0  0999 V2000
   -1.9609    0.3476   -0.2023 C   0  0  0  0  0  0  0  0  0  0  0  0
   -3.3230    0.1221   -0.3847 N   0  0  0  0  0  0  0  0  0  0  0  0
   -4.4327    0.1134   -0.5145 N   0  0  0  0  0  0  0  0  0  0  0  0
   -1.6023    1.6951   -0.0583 C   0  0  0  0  0  0  0  0  0  0  0  0
   -0.2176    1.8670    0.1261 C   0  0  0  0  0  0  0  0  0  0  0  0
    0.6739    0.7947    0.1573 C   0  0  0  0  0  0  0  0  0  0  0  0
    0.2308   -0.5345    0.0033 C   0  0  0  0  0  0  0  0  0  0  0  0
   -1.1152   -0.7840   -0.1823 C   0  0  0  0  0  0  0  0  0  0  0  0
   -2.5453    2.8167   -0.0900 H   0  0  0  0  0  0  0  0  0  0  0  0
    0.1717    2.8749    0.2502 H   0  0  0  0  0  0  0  0  0  0  0  0
    1.7352    0.9801    0.3042 H   0  0  0  0  0  0  0  0  0  0  0  0
    0.9381   -1.3564    0.0307 H   0  0  0  0  0  0  0  0  0  0  0  0
   -1.5071   -1.7886   -0.3058 H   0  0  0  0  0  0  0  0  0  0  0  0
   -5.0888    2.5180   -0.2932 O   0  0  0  0  0  0  0  0  0  0  0  0
   -4.4858    3.5851   -0.1896 C   0  0  0  0  0  0  0  0  0  0  0  0
   -3.2233    3.8063   -0.0955 O   0  0  0  0  0  0  0  0  0  0  0  0
   -5.3033    4.9034   -0.1626 C   0  0  0  0  0  0  0  0  0  0  0  0
   -4.9538    5.6997   -1.1949 F   0  0  0  0  0  0  0  0  0  0  0  0
   -6.6217    4.6742   -0.2455 F   0  0  0  0  0  0  0  0  0  0  0  0
   -5.0704    5.5842    0.9792 F   0  0  0  0  0  0  0  0  0  0  0  0
  1  8  2  0  0  0  0
  1  4  1  0  0  0  0
  2  1  1  0  0  0  0
  3  2  1  0  0  0  0
  4  5  2  0  0  0  0
  5  6  1  0  0  0  0
  5 10  1  0  0  0  0
  6 11  1  0  0  0  0
  7 12  1  0  0  0  0
  7  6  2  0  0  0  0
  8  7  1  0  0  0  0
 13  8  1  0  0  0  0
 14 15  2  0  0  0  0
 15 17  1  0  0  0  0
 15 16  1  0  0  0  0
 16  9  1  0  0  0  0
 17 20  1  0  0  0  0
 18 17  1  0  0  0  0
 19 17  1  0  0  0  0
M  RAD  3   2   2   3   3   4   2
M  END
