Coordinates from ORCA-job PhN2+~CF3COO-_B3LYPG-6-31G_dp-CH-Scan-d09-49-n800
 OpenBabel11261919373D

 20 19  0  0  0  0  0  0  0  0999 V2000
   -1.6468    0.2213   -0.1531 C   0  0  0  0  0  0  0  0  0  0  0  0
   -3.0290    0.1498   -0.2996 N   0  0  0  0  0  0  0  0  0  0  0  0
   -4.1414    0.1437   -0.4128 N   0  0  0  0  0  0  0  0  0  0  0  0
   -1.1670    1.5321    0.0064 C   0  0  0  0  0  0  0  0  0  0  0  0
    0.2474    1.5100    0.1505 C   0  0  0  0  0  0  0  0  0  0  0  0
    1.0094    0.3456    0.1321 C   0  0  0  0  0  0  0  0  0  0  0  0
    0.4154   -0.9287   -0.0368 C   0  0  0  0  0  0  0  0  0  0  0  0
   -0.9505   -1.0177   -0.1856 C   0  0  0  0  0  0  0  0  0  0  0  0
   -2.9337    3.8601    0.0173 H   0  0  0  0  0  0  0  0  0  0  0  0
    0.7755    2.4543    0.2848 H   0  0  0  0  0  0  0  0  0  0  0  0
    2.0903    0.4021    0.2508 H   0  0  0  0  0  0  0  0  0  0  0  0
    1.0283   -1.8241   -0.0484 H   0  0  0  0  0  0  0  0  0  0  0  0
   -1.4611   -1.9676   -0.3191 H   0  0  0  0  0  0  0  0  0  0  0  0
   -5.0604    2.8621   -0.3186 O   0  0  0  0  0  0  0  0  0  0  0  0
   -4.7991    4.0332   -0.1891 C   0  0  0  0  0  0  0  0  0  0  0  0
   -3.6007    4.5747    0.0001 O   0  0  0  0  0  0  0  0  0  0  0  0
   -5.8775    5.1388   -0.2281 C   0  0  0  0  0  0  0  0  0  0  0  0
   -5.6345    5.9932   -1.2380 F   0  0  0  0  0  0  0  0  0  0  0  0
   -7.0874    4.6017   -0.4040 F   0  0  0  0  0  0  0  0  0  0  0  0
   -5.8784    5.8345    0.9229 F   0  0  0  0  0  0  0  0  0  0  0  0
  1  4  1  0  0  0  0
  2  1  1  0  0  0  0
  3  2  1  0  0  0  0
  4  5  2  0  0  0  0
  5 10  1  0  0  0  0
  6  5  1  0  0  0  0
  6 11  1  0  0  0  0
  7  6  2  0  0  0  0
  8  1  2  0  0  0  0
  8  7  1  0  0  0  0
 12  7  1  0  0  0  0
 13  8  1  0  0  0  0
 14 15  2  0  0  0  0
 15 16  1  0  0  0  0
 16  9  1  0  0  0  0
 17 15  1  0  0  0  0
 17 20  1  0  0  0  0
 18 17  1  0  0  0  0
 19 17  1  0  0  0  0
M  RAD  3   2   2   3   3   4   2
M  END
