Coordinates from ORCA-job PhN2+~CF3COO-_B3LYPG-6-31G_dp-CH-Scan-d09-49-n800
 OpenBabel11261919373D

 20 19  0  0  0  0  0  0  0  0999 V2000
   -1.6180    0.2126   -0.1544 C   0  0  0  0  0  0  0  0  0  0  0  0
   -3.0013    0.1600   -0.3030 N   0  0  0  0  0  0  0  0  0  0  0  0
   -4.1130    0.1697   -0.4228 N   0  0  0  0  0  0  0  0  0  0  0  0
   -1.1229    1.5180    0.0018 C   0  0  0  0  0  0  0  0  0  0  0  0
    0.2912    1.4769    0.1489 C   0  0  0  0  0  0  0  0  0  0  0  0
    1.0379    0.3026    0.1356 C   0  0  0  0  0  0  0  0  0  0  0  0
    0.4277   -0.9646   -0.0306 C   0  0  0  0  0  0  0  0  0  0  0  0
   -0.9389   -1.0362   -0.1819 C   0  0  0  0  0  0  0  0  0  0  0  0
   -2.9538    3.9544    0.0043 H   0  0  0  0  0  0  0  0  0  0  0  0
    0.8320    2.4144    0.2816 H   0  0  0  0  0  0  0  0  0  0  0  0
    2.1193    0.3451    0.2564 H   0  0  0  0  0  0  0  0  0  0  0  0
    1.0290   -1.8679   -0.0383 H   0  0  0  0  0  0  0  0  0  0  0  0
   -1.4619   -1.9796   -0.3134 H   0  0  0  0  0  0  0  0  0  0  0  0
   -5.0496    2.8978   -0.3177 O   0  0  0  0  0  0  0  0  0  0  0  0
   -4.8223    4.0760   -0.1923 C   0  0  0  0  0  0  0  0  0  0  0  0
   -3.6372    4.6514   -0.0111 O   0  0  0  0  0  0  0  0  0  0  0  0
   -5.9311    5.1510   -0.2256 C   0  0  0  0  0  0  0  0  0  0  0  0
   -5.7134    6.0165   -1.2316 F   0  0  0  0  0  0  0  0  0  0  0  0
   -7.1252    4.5803   -0.4026 F   0  0  0  0  0  0  0  0  0  0  0  0
   -5.9498    5.8406    0.9288 F   0  0  0  0  0  0  0  0  0  0  0  0
  1  4  1  0  0  0  0
  2  1  1  0  0  0  0
  3  2  1  0  0  0  0
  4  5  2  0  0  0  0
  5 10  1  0  0  0  0
  6  5  1  0  0  0  0
  6 11  1  0  0  0  0
  7  6  2  0  0  0  0
  8  1  2  0  0  0  0
  8  7  1  0  0  0  0
 12  7  1  0  0  0  0
 13  8  1  0  0  0  0
 14 15  2  0  0  0  0
 15 16  1  0  0  0  0
 16  9  1  0  0  0  0
 17 15  1  0  0  0  0
 17 20  1  0  0  0  0
 18 17  1  0  0  0  0
 19 17  1  0  0  0  0
M  RAD  3   2   2   3   3   4   2
M  END
