Coordinates from ORCA-job PhN2+~CF3COO-_B3LYPG-6-31G_dp-CH-Scan-d09-49-n800
 OpenBabel11261919373D

 20 19  0  0  0  0  0  0  0  0999 V2000
   -1.6656    0.2271   -0.1540 C   0  0  0  0  0  0  0  0  0  0  0  0
   -3.0469    0.1436   -0.3009 N   0  0  0  0  0  0  0  0  0  0  0  0
   -4.1590    0.1275   -0.4144 N   0  0  0  0  0  0  0  0  0  0  0  0
   -1.1955    1.5414    0.0061 C   0  0  0  0  0  0  0  0  0  0  0  0
    0.2185    1.5315    0.1507 C   0  0  0  0  0  0  0  0  0  0  0  0
    0.9901    0.3733    0.1323 C   0  0  0  0  0  0  0  0  0  0  0  0
    0.4066   -0.9056   -0.0371 C   0  0  0  0  0  0  0  0  0  0  0  0
   -0.9586   -1.0057   -0.1864 C   0  0  0  0  0  0  0  0  0  0  0  0
   -2.9189    3.8018    0.0141 H   0  0  0  0  0  0  0  0  0  0  0  0
    0.7385    2.4801    0.2855 H   0  0  0  0  0  0  0  0  0  0  0  0
    2.0704    0.4388    0.2513 H   0  0  0  0  0  0  0  0  0  0  0  0
    1.0266   -1.7960   -0.0489 H   0  0  0  0  0  0  0  0  0  0  0  0
   -1.4612   -1.9597   -0.3203 H   0  0  0  0  0  0  0  0  0  0  0  0
   -5.0651    2.8396   -0.3195 O   0  0  0  0  0  0  0  0  0  0  0  0
   -4.7827    4.0061   -0.1893 C   0  0  0  0  0  0  0  0  0  0  0  0
   -3.5759    4.5271   -0.0019 O   0  0  0  0  0  0  0  0  0  0  0  0
   -5.8427    5.1295   -0.2257 C   0  0  0  0  0  0  0  0  0  0  0  0
   -5.5886    5.9793   -1.2369 F   0  0  0  0  0  0  0  0  0  0  0  0
   -7.0623    4.6131   -0.3979 F   0  0  0  0  0  0  0  0  0  0  0  0
   -5.8290    5.8260    0.9248 F   0  0  0  0  0  0  0  0  0  0  0  0
  1  4  1  0  0  0  0
  2  1  1  0  0  0  0
  3  2  1  0  0  0  0
  4  5  2  0  0  0  0
  5 10  1  0  0  0  0
  6  5  1  0  0  0  0
  6 11  1  0  0  0  0
  7  6  2  0  0  0  0
  8  1  2  0  0  0  0
  8  7  1  0  0  0  0
 12  7  1  0  0  0  0
 13  8  1  0  0  0  0
 14 15  2  0  0  0  0
 15 16  1  0  0  0  0
 16  9  1  0  0  0  0
 17 15  1  0  0  0  0
 17 20  1  0  0  0  0
 18 17  1  0  0  0  0
 19 17  1  0  0  0  0
M  RAD  3   2   2   3   3   4   2
M  END
