Coordinates from ORCA-job PhN2+~CF3COO-_B3LYPG-6-31G_dp-CH-Scan-d09-49-n800
 OpenBabel11261919373D

 20 19  0  0  0  0  0  0  0  0999 V2000
   -1.8733    0.2990   -0.1757 C   0  0  0  0  0  0  0  0  0  0  0  0
   -3.2381    0.0891   -0.3361 N   0  0  0  0  0  0  0  0  0  0  0  0
   -4.3426   -0.0179   -0.4604 N   0  0  0  0  0  0  0  0  0  0  0  0
   -1.5037    1.6473   -0.0284 C   0  0  0  0  0  0  0  0  0  0  0  0
   -0.1002    1.7628    0.1307 C   0  0  0  0  0  0  0  0  0  0  0  0
    0.7661    0.6724    0.1367 C   0  0  0  0  0  0  0  0  0  0  0  0
    0.2916   -0.6498   -0.0199 C   0  0  0  0  0  0  0  0  0  0  0  0
   -1.0599   -0.8642   -0.1818 C   0  0  0  0  0  0  0  0  0  0  0  0
   -2.7348    3.1997   -0.0349 H   0  0  0  0  0  0  0  0  0  0  0  0
    0.3313    2.7546    0.2568 H   0  0  0  0  0  0  0  0  0  0  0  0
    1.8349    0.8309    0.2656 H   0  0  0  0  0  0  0  0  0  0  0  0
    0.9814   -1.4872   -0.0123 H   0  0  0  0  0  0  0  0  0  0  0  0
   -1.4794   -1.8582   -0.3068 H   0  0  0  0  0  0  0  0  0  0  0  0
   -5.0667    2.6199   -0.3381 O   0  0  0  0  0  0  0  0  0  0  0  0
   -4.5786    3.7221   -0.1931 C   0  0  0  0  0  0  0  0  0  0  0  0
   -3.3147    4.0354   -0.0282 O   0  0  0  0  0  0  0  0  0  0  0  0
   -5.4560    4.9957   -0.1870 C   0  0  0  0  0  0  0  0  0  0  0  0
   -5.0989    5.8190   -1.1915 F   0  0  0  0  0  0  0  0  0  0  0  0
   -6.7480    4.6836   -0.3364 F   0  0  0  0  0  0  0  0  0  0  0  0
   -5.3119    5.6647    0.9728 F   0  0  0  0  0  0  0  0  0  0  0  0
  1  4  1  0  0  0  0
  2  1  1  0  0  0  0
  3  2  1  0  0  0  0
  4  5  2  0  0  0  0
  5  6  1  0  0  0  0
  5 10  1  0  0  0  0
  6 11  1  0  0  0  0
  7 12  1  0  0  0  0
  7  6  2  0  0  0  0
  8  1  2  0  0  0  0
  8  7  1  0  0  0  0
  9 16  1  0  0  0  0
 13  8  1  0  0  0  0
 14 15  2  0  0  0  0
 15 17  1  0  0  0  0
 15 16  1  0  0  0  0
 17 20  1  0  0  0  0
 18 17  1  0  0  0  0
 19 17  1  0  0  0  0
M  RAD  3   2   2   3   3   4   2
M  END
