Coordinates from ORCA-job PhN2+~CF3COO-_B3LYPG-6-31G_dp-CH-Scan-d09-49-n800
 OpenBabel11261919373D

 20 19  0  0  0  0  0  0  0  0999 V2000
   -2.0687    0.6756   -0.1023 C   0  0  0  0  0  0  0  0  0  0  0  0
   -3.4811    0.5796   -0.1705 N   0  0  0  0  0  0  0  0  0  0  0  0
   -4.4030   -0.0646   -0.2100 N   0  0  0  0  0  0  0  0  0  0  0  0
   -1.4236    1.9074   -0.1691 C   0  0  0  0  0  0  0  0  0  0  0  0
   -0.0290    1.8947   -0.1050 C   0  0  0  0  0  0  0  0  0  0  0  0
    0.6737    0.6965    0.0242 C   0  0  0  0  0  0  0  0  0  0  0  0
   -0.0079   -0.5262    0.0887 C   0  0  0  0  0  0  0  0  0  0  0  0
   -1.3935   -0.5522    0.0236 C   0  0  0  0  0  0  0  0  0  0  0  0
   -1.9203    2.7300   -0.2583 H   0  0  0  0  0  0  0  0  0  0  0  0
    0.5019    2.8396   -0.1561 H   0  0  0  0  0  0  0  0  0  0  0  0
    1.7584    0.7083    0.0763 H   0  0  0  0  0  0  0  0  0  0  0  0
    0.5402   -1.4571    0.1899 H   0  0  0  0  0  0  0  0  0  0  0  0
   -1.9492   -1.4822    0.0704 H   0  0  0  0  0  0  0  0  0  0  0  0
   -4.3633    2.5381   -0.1017 O   0  0  0  0  0  0  0  0  0  0  0  0
   -4.1167    3.7847   -0.2303 C   0  0  0  0  0  0  0  0  0  0  0  0
   -3.0507    4.3812   -0.3876 O   0  0  0  0  0  0  0  0  0  0  0  0
   -5.4307    4.6262   -0.1752 C   0  0  0  0  0  0  0  0  0  0  0  0
   -5.1882    5.9422   -0.2705 F   0  0  0  0  0  0  0  0  0  0  0  0
   -6.2578    4.2851   -1.1874 F   0  0  0  0  0  0  0  0  0  0  0  0
   -6.0919    4.4120    0.9827 F   0  0  0  0  0  0  0  0  0  0  0  0
  1  8  2  0  0  0  0
  2  1  1  0  0  0  0
  3  2  2  0  0  0  0
  4  5  2  0  0  0  0
  4  1  1  0  0  0  0
  5  6  1  0  0  0  0
  6 11  1  0  0  0  0
  6  7  2  0  0  0  0
  7 12  1  0  0  0  0
  8 13  1  0  0  0  0
  8  7  1  0  0  0  0
  9  4  1  0  0  0  0
 10  5  1  0  0  0  0
 15 17  1  0  0  0  0
 15 14  1  0  0  0  0
 16 15  2  0  0  0  0
 17 20  1  0  0  0  0
 18 17  1  0  0  0  0
 19 17  1  0  0  0  0
M  RAD  2   3   2  14   2
M  END
