Coordinates from ORCA-job PhN2+~CF3COO-_B3LYPG-6-31G_dp-CH-Scan-d09-49-n800
 OpenBabel11261919373D

 20 19  0  0  0  0  0  0  0  0999 V2000
   -1.4302    0.1535   -0.1399 C   0  0  0  0  0  0  0  0  0  0  0  0
   -2.8160    0.2264   -0.2781 N   0  0  0  0  0  0  0  0  0  0  0  0
   -3.9235    0.3474   -0.3834 N   0  0  0  0  0  0  0  0  0  0  0  0
   -0.8363    1.4161    0.0149 C   0  0  0  0  0  0  0  0  0  0  0  0
    0.5730    1.2539    0.1511 C   0  0  0  0  0  0  0  0  0  0  0  0
    1.2201    0.0227    0.1299 C   0  0  0  0  0  0  0  0  0  0  0  0
    0.5065   -1.1910   -0.0347 C   0  0  0  0  0  0  0  0  0  0  0  0
   -0.8621   -1.1496   -0.1761 C   0  0  0  0  0  0  0  0  0  0  0  0
   -3.1268    4.5773    0.0357 H   0  0  0  0  0  0  0  0  0  0  0  0
    1.1926    2.1425    0.2816 H   0  0  0  0  0  0  0  0  0  0  0  0
    2.3024   -0.0256    0.2427 H   0  0  0  0  0  0  0  0  0  0  0  0
    1.0326   -2.1402   -0.0490 H   0  0  0  0  0  0  0  0  0  0  0  0
   -1.4629   -2.0459   -0.3060 H   0  0  0  0  0  0  0  0  0  0  0  0
   -4.9811    3.1605   -0.2930 O   0  0  0  0  0  0  0  0  0  0  0  0
   -4.9800    4.3603   -0.1889 C   0  0  0  0  0  0  0  0  0  0  0  0
   -3.9158    5.1451   -0.0027 O   0  0  0  0  0  0  0  0  0  0  0  0
   -6.2615    5.2194   -0.2542 C   0  0  0  0  0  0  0  0  0  0  0  0
   -6.1754    6.1107   -1.2571 F   0  0  0  0  0  0  0  0  0  0  0  0
   -7.3274    4.4435   -0.4588 F   0  0  0  0  0  0  0  0  0  0  0  0
   -6.4297    5.8918    0.8978 F   0  0  0  0  0  0  0  0  0  0  0  0
  1  4  1  0  0  0  0
  2  1  1  0  0  0  0
  3  2  1  0  0  0  0
  4  5  2  0  0  0  0
  5 10  1  0  0  0  0
  6  5  1  0  0  0  0
  6 11  1  0  0  0  0
  7  6  2  0  0  0  0
  8  1  2  0  0  0  0
  8  7  1  0  0  0  0
 12  7  1  0  0  0  0
 13  8  1  0  0  0  0
 14 15  2  0  0  0  0
 15 16  1  0  0  0  0
 16  9  1  0  0  0  0
 17 15  1  0  0  0  0
 17 20  1  0  0  0  0
 18 17  1  0  0  0  0
 19 17  1  0  0  0  0
M  RAD  3   2   2   3   3   4   2
M  END
