Coordinates from ORCA-job PhN2+~CF3COO-_B3LYPG-6-31G_dp-CH-Scan-d09-49-n800
 OpenBabel11261919373D

 20 19  0  0  0  0  0  0  0  0999 V2000
   -1.2634    0.1329   -0.2069 C   0  0  0  0  0  0  0  0  0  0  0  0
   -2.6294    0.3252   -0.4169 N   0  0  0  0  0  0  0  0  0  0  0  0
   -3.7142    0.5474   -0.5811 N   0  0  0  0  0  0  0  0  0  0  0  0
   -0.5716    1.3452   -0.0634 C   0  0  0  0  0  0  0  0  0  0  0  0
    0.8107    1.0671    0.1502 C   0  0  0  0  0  0  0  0  0  0  0  0
    1.3471   -0.2152    0.2040 C   0  0  0  0  0  0  0  0  0  0  0  0
    0.5384   -1.3686    0.0424 C   0  0  0  0  0  0  0  0  0  0  0  0
   -0.8125   -1.2153   -0.1718 C   0  0  0  0  0  0  0  0  0  0  0  0
   -3.3033    5.0887   -0.1203 H   0  0  0  0  0  0  0  0  0  0  0  0
    1.4989    1.9034    0.2828 H   0  0  0  0  0  0  0  0  0  0  0  0
    2.4139   -0.3527    0.3752 H   0  0  0  0  0  0  0  0  0  0  0  0
    0.9797   -2.3593    0.0871 H   0  0  0  0  0  0  0  0  0  0  0  0
   -1.4826   -2.0607   -0.3044 H   0  0  0  0  0  0  0  0  0  0  0  0
   -4.9300    3.4046   -0.3252 O   0  0  0  0  0  0  0  0  0  0  0  0
   -5.1113    4.5894   -0.2144 C   0  0  0  0  0  0  0  0  0  0  0  0
   -4.1693    5.5314   -0.1001 O   0  0  0  0  0  0  0  0  0  0  0  0
   -6.5116    5.2391   -0.1838 C   0  0  0  0  0  0  0  0  0  0  0  0
   -6.6377    6.1232   -1.1886 F   0  0  0  0  0  0  0  0  0  0  0  0
   -7.4556    4.3049   -0.3116 F   0  0  0  0  0  0  0  0  0  0  0  0
   -6.6977    5.8881    0.9786 F   0  0  0  0  0  0  0  0  0  0  0  0
  1  8  2  0  0  0  0
  1  4  1  0  0  0  0
  2  1  1  0  0  0  0
  3  2  1  0  0  0  0
  4  5  2  0  0  0  0
  5  6  1  0  0  0  0
  5 10  1  0  0  0  0
  6 11  1  0  0  0  0
  7 12  1  0  0  0  0
  7  6  2  0  0  0  0
  8  7  1  0  0  0  0
  9 16  1  0  0  0  0
 13  8  1  0  0  0  0
 14 15  2  0  0  0  0
 15 17  1  0  0  0  0
 15 16  1  0  0  0  0
 17 20  1  0  0  0  0
 18 17  1  0  0  0  0
 19 17  1  0  0  0  0
M  RAD  3   2   2   3   3   4   2
M  END
