Coordinates from ORCA-job PhN2+~CF3COO-_B3LYPG-6-31G_dp-CH-Scan-d09-49-n800
 OpenBabel11261919373D

 20 19  0  0  0  0  0  0  0  0999 V2000
   -1.4009    0.1478   -0.1320 C   0  0  0  0  0  0  0  0  0  0  0  0
   -2.7862    0.2427   -0.2622 N   0  0  0  0  0  0  0  0  0  0  0  0
   -3.8924    0.3818   -0.3597 N   0  0  0  0  0  0  0  0  0  0  0  0
   -0.7881    1.4006    0.0281 C   0  0  0  0  0  0  0  0  0  0  0  0
    0.6195    1.2161    0.1560 C   0  0  0  0  0  0  0  0  0  0  0  0
    1.2480   -0.0243    0.1233 C   0  0  0  0  0  0  0  0  0  0  0  0
    0.5156   -1.2263   -0.0457 C   0  0  0  0  0  0  0  0  0  0  0  0
   -0.8529   -1.1636   -0.1798 C   0  0  0  0  0  0  0  0  0  0  0  0
   -3.1603    4.6879    0.0645 H   0  0  0  0  0  0  0  0  0  0  0  0
    1.2531    2.0945    0.2893 H   0  0  0  0  0  0  0  0  0  0  0  0
    2.3301   -0.0896    0.2302 H   0  0  0  0  0  0  0  0  0  0  0  0
    1.0276   -2.1830   -0.0690 H   0  0  0  0  0  0  0  0  0  0  0  0
   -1.4676   -2.0499   -0.3126 H   0  0  0  0  0  0  0  0  0  0  0  0
   -4.9611    3.2084   -0.2797 O   0  0  0  0  0  0  0  0  0  0  0  0
   -5.0022    4.4078   -0.1819 C   0  0  0  0  0  0  0  0  0  0  0  0
   -3.9670    5.2291    0.0128 O   0  0  0  0  0  0  0  0  0  0  0  0
   -6.3110    5.2228   -0.2685 C   0  0  0  0  0  0  0  0  0  0  0  0
   -6.2470    6.1009   -1.2845 F   0  0  0  0  0  0  0  0  0  0  0  0
   -7.3487    4.4085   -0.4685 F   0  0  0  0  0  0  0  0  0  0  0  0
   -6.5100    5.9067    0.8717 F   0  0  0  0  0  0  0  0  0  0  0  0
  1  4  1  0  0  0  0
  2  1  1  0  0  0  0
  3  2  1  0  0  0  0
  4  5  2  0  0  0  0
  5 10  1  0  0  0  0
  6  5  1  0  0  0  0
  6 11  1  0  0  0  0
  7  6  2  0  0  0  0
  8  1  2  0  0  0  0
  8  7  1  0  0  0  0
 12  7  1  0  0  0  0
 13  8  1  0  0  0  0
 14 15  2  0  0  0  0
 15 16  1  0  0  0  0
 16  9  1  0  0  0  0
 17 15  1  0  0  0  0
 17 20  1  0  0  0  0
 18 17  1  0  0  0  0
 19 17  1  0  0  0  0
M  RAD  3   2   2   3   3   4   2
M  END
