Coordinates from ORCA-job PhN2+~CF3COO-_B3LYPG-6-31G_dp-CH-Scan-d09-49-n800
 OpenBabel11261919373D

 20 19  0  0  0  0  0  0  0  0999 V2000
   -1.2522    0.1331   -0.2234 C   0  0  0  0  0  0  0  0  0  0  0  0
   -2.6144    0.3321   -0.4519 N   0  0  0  0  0  0  0  0  0  0  0  0
   -3.6955    0.5603   -0.6320 N   0  0  0  0  0  0  0  0  0  0  0  0
   -0.5548    1.3424   -0.0831 C   0  0  0  0  0  0  0  0  0  0  0  0
    0.8231    1.0582    0.1494 C   0  0  0  0  0  0  0  0  0  0  0  0
    1.3509   -0.2267    0.2219 C   0  0  0  0  0  0  0  0  0  0  0  0
    0.5371   -1.3768    0.0615 C   0  0  0  0  0  0  0  0  0  0  0  0
   -0.8103   -1.2174   -0.1703 C   0  0  0  0  0  0  0  0  0  0  0  0
   -3.3138    5.1090   -0.1667 H   0  0  0  0  0  0  0  0  0  0  0  0
    1.5148    1.8916    0.2822 H   0  0  0  0  0  0  0  0  0  0  0  0
    2.4147   -0.3690    0.4071 H   0  0  0  0  0  0  0  0  0  0  0  0
    0.9717   -2.3696    0.1209 H   0  0  0  0  0  0  0  0  0  0  0  0
   -1.4839   -2.0599   -0.3030 H   0  0  0  0  0  0  0  0  0  0  0  0
   -4.9341    3.4153   -0.3398 O   0  0  0  0  0  0  0  0  0  0  0  0
   -5.1202    4.5988   -0.2238 C   0  0  0  0  0  0  0  0  0  0  0  0
   -4.1818    5.5465   -0.1282 O   0  0  0  0  0  0  0  0  0  0  0  0
   -6.5235    5.2399   -0.1620 C   0  0  0  0  0  0  0  0  0  0  0  0
   -6.6738    6.1315   -1.1567 F   0  0  0  0  0  0  0  0  0  0  0  0
   -7.4643    4.3013   -0.2796 F   0  0  0  0  0  0  0  0  0  0  0  0
   -6.6911    5.8782    1.0092 F   0  0  0  0  0  0  0  0  0  0  0  0
  1  8  2  0  0  0  0
  1  4  1  0  0  0  0
  2  1  1  0  0  0  0
  3  2  1  0  0  0  0
  4  5  2  0  0  0  0
  5  6  1  0  0  0  0
  5 10  1  0  0  0  0
  6 11  1  0  0  0  0
  7 12  1  0  0  0  0
  7  6  2  0  0  0  0
  8  7  1  0  0  0  0
  9 16  1  0  0  0  0
 13  8  1  0  0  0  0
 14 15  2  0  0  0  0
 15 17  1  0  0  0  0
 15 16  1  0  0  0  0
 17 20  1  0  0  0  0
 18 17  1  0  0  0  0
 19 17  1  0  0  0  0
M  RAD  3   2   2   3   3   4   2
M  END
