Coordinates from ORCA-job PhN2+~CF3COO-_B3LYPG-6-31G_dp-CH-Scan-d09-49-n800
 OpenBabel11261919373D

 20 19  0  0  0  0  0  0  0  0999 V2000
   -1.5942    0.2050   -0.1545 C   0  0  0  0  0  0  0  0  0  0  0  0
   -2.9781    0.1679   -0.3040 N   0  0  0  0  0  0  0  0  0  0  0  0
   -4.0902    0.1908   -0.4199 N   0  0  0  0  0  0  0  0  0  0  0  0
   -1.0868    1.5058   -0.0004 C   0  0  0  0  0  0  0  0  0  0  0  0
    0.3273    1.4493    0.1471 C   0  0  0  0  0  0  0  0  0  0  0  0
    1.0615    0.2672    0.1363 C   0  0  0  0  0  0  0  0  0  0  0  0
    0.4381   -0.9941   -0.0279 C   0  0  0  0  0  0  0  0  0  0  0  0
   -0.9291   -1.0515   -0.1797 C   0  0  0  0  0  0  0  0  0  0  0  0
   -2.9720    4.0329    0.0021 H   0  0  0  0  0  0  0  0  0  0  0  0
    0.8784    2.3810    0.2781 H   0  0  0  0  0  0  0  0  0  0  0  0
    2.1433    0.2983    0.2574 H   0  0  0  0  0  0  0  0  0  0  0  0
    1.0300   -1.9036   -0.0338 H   0  0  0  0  0  0  0  0  0  0  0  0
   -1.4621   -1.9895   -0.3098 H   0  0  0  0  0  0  0  0  0  0  0  0
   -5.0408    2.9283   -0.3152 O   0  0  0  0  0  0  0  0  0  0  0  0
   -4.8419    4.1116   -0.1938 C   0  0  0  0  0  0  0  0  0  0  0  0
   -3.6692    4.7148   -0.0159 O   0  0  0  0  0  0  0  0  0  0  0  0
   -5.9748    5.1610   -0.2268 C   0  0  0  0  0  0  0  0  0  0  0  0
   -5.7725    6.0372   -1.2266 F   0  0  0  0  0  0  0  0  0  0  0  0
   -7.1543    4.5637   -0.4126 F   0  0  0  0  0  0  0  0  0  0  0  0
   -6.0141    5.8427    0.9317 F   0  0  0  0  0  0  0  0  0  0  0  0
  1  4  1  0  0  0  0
  2  1  1  0  0  0  0
  3  2  1  0  0  0  0
  4  5  2  0  0  0  0
  5 10  1  0  0  0  0
  6  5  1  0  0  0  0
  6 11  1  0  0  0  0
  7  6  2  0  0  0  0
  8  1  2  0  0  0  0
  8  7  1  0  0  0  0
 12  7  1  0  0  0  0
 13  8  1  0  0  0  0
 14 15  2  0  0  0  0
 15 16  1  0  0  0  0
 16  9  1  0  0  0  0
 17 15  1  0  0  0  0
 17 20  1  0  0  0  0
 18 17  1  0  0  0  0
 19 17  1  0  0  0  0
M  RAD  3   2   2   3   3   4   2
M  END
