Coordinates from ORCA-job PhN2+~CF3COO-_B3LYPG-6-31G_dp-CH-Scan-d09-49-n800
 OpenBabel11261919373D

 20 19  0  0  0  0  0  0  0  0999 V2000
   -1.6775    0.2310   -0.1545 C   0  0  0  0  0  0  0  0  0  0  0  0
   -3.0582    0.1401   -0.3016 N   0  0  0  0  0  0  0  0  0  0  0  0
   -4.1700    0.1177   -0.4154 N   0  0  0  0  0  0  0  0  0  0  0  0
   -1.2132    1.5475    0.0054 C   0  0  0  0  0  0  0  0  0  0  0  0
    0.2006    1.5451    0.1502 C   0  0  0  0  0  0  0  0  0  0  0  0
    0.9780    0.3906    0.1321 C   0  0  0  0  0  0  0  0  0  0  0  0
    0.4007   -0.8910   -0.0370 C   0  0  0  0  0  0  0  0  0  0  0  0
   -0.9640   -0.9980   -0.1865 C   0  0  0  0  0  0  0  0  0  0  0  0
   -2.9097    3.7655    0.0123 H   0  0  0  0  0  0  0  0  0  0  0  0
    0.7156    2.4963    0.2848 H   0  0  0  0  0  0  0  0  0  0  0  0
    2.0579    0.4615    0.2512 H   0  0  0  0  0  0  0  0  0  0  0  0
    1.0251   -1.7784   -0.0484 H   0  0  0  0  0  0  0  0  0  0  0  0
   -1.4617   -1.9545   -0.3202 H   0  0  0  0  0  0  0  0  0  0  0  0
   -5.0673    2.8258   -0.3204 O   0  0  0  0  0  0  0  0  0  0  0  0
   -4.7721    3.9893   -0.1894 C   0  0  0  0  0  0  0  0  0  0  0  0
   -3.5605    4.4974   -0.0026 O   0  0  0  0  0  0  0  0  0  0  0  0
   -5.8209    5.1233   -0.2242 C   0  0  0  0  0  0  0  0  0  0  0  0
   -5.5589    5.9715   -1.2348 F   0  0  0  0  0  0  0  0  0  0  0  0
   -7.0459    4.6196   -0.3961 F   0  0  0  0  0  0  0  0  0  0  0  0
   -5.7995    5.8187    0.9269 F   0  0  0  0  0  0  0  0  0  0  0  0
  1  4  1  0  0  0  0
  2  1  1  0  0  0  0
  3  2  1  0  0  0  0
  4  5  2  0  0  0  0
  5 10  1  0  0  0  0
  6  5  1  0  0  0  0
  6 11  1  0  0  0  0
  7  6  2  0  0  0  0
  8  1  2  0  0  0  0
  8  7  1  0  0  0  0
 12  7  1  0  0  0  0
 13  8  1  0  0  0  0
 14 15  2  0  0  0  0
 15 16  1  0  0  0  0
 16  9  1  0  0  0  0
 17 15  1  0  0  0  0
 17 20  1  0  0  0  0
 18 17  1  0  0  0  0
 19 17  1  0  0  0  0
M  RAD  3   2   2   3   3   4   2
M  END
