Coordinates from ORCA-job PhN2+~CF3COO-_B3LYPG-6-31G_dp-CH-Scan-d09-49-n800
 OpenBabel11261919373D

 20 19  0  0  0  0  0  0  0  0999 V2000
   -1.8698    0.2977   -0.1750 C   0  0  0  0  0  0  0  0  0  0  0  0
   -3.2349    0.0898   -0.3350 N   0  0  0  0  0  0  0  0  0  0  0  0
   -4.3396   -0.0161   -0.4590 N   0  0  0  0  0  0  0  0  0  0  0  0
   -1.4986    1.6455   -0.0275 C   0  0  0  0  0  0  0  0  0  0  0  0
   -0.0947    1.7589    0.1310 C   0  0  0  0  0  0  0  0  0  0  0  0
    0.7701    0.6673    0.1364 C   0  0  0  0  0  0  0  0  0  0  0  0
    0.2938   -0.6542   -0.0204 C   0  0  0  0  0  0  0  0  0  0  0  0
   -1.0580   -0.8668   -0.1819 C   0  0  0  0  0  0  0  0  0  0  0  0
   -2.7386    3.2101   -0.0337 H   0  0  0  0  0  0  0  0  0  0  0  0
    0.3383    2.7501    0.2573 H   0  0  0  0  0  0  0  0  0  0  0  0
    1.8392    0.8244    0.2649 H   0  0  0  0  0  0  0  0  0  0  0  0
    0.9825   -1.4924   -0.0133 H   0  0  0  0  0  0  0  0  0  0  0  0
   -1.4790   -1.8601   -0.3070 H   0  0  0  0  0  0  0  0  0  0  0  0
   -5.0672    2.6233   -0.3382 O   0  0  0  0  0  0  0  0  0  0  0  0
   -4.5823    3.7268   -0.1932 C   0  0  0  0  0  0  0  0  0  0  0  0
   -3.3190    4.0434   -0.0273 O   0  0  0  0  0  0  0  0  0  0  0  0
   -5.4626    4.9983   -0.1879 C   0  0  0  0  0  0  0  0  0  0  0  0
   -5.1064    5.8224   -1.1920 F   0  0  0  0  0  0  0  0  0  0  0  0
   -6.7536    4.6830   -0.3385 F   0  0  0  0  0  0  0  0  0  0  0  0
   -5.3210    5.6675    0.9722 F   0  0  0  0  0  0  0  0  0  0  0  0
  1  4  1  0  0  0  0
  2  1  1  0  0  0  0
  3  2  1  0  0  0  0
  4  5  2  0  0  0  0
  5  6  1  0  0  0  0
  5 10  1  0  0  0  0
  6 11  1  0  0  0  0
  7 12  1  0  0  0  0
  7  6  2  0  0  0  0
  8  1  2  0  0  0  0
  8  7  1  0  0  0  0
  9 16  1  0  0  0  0
 13  8  1  0  0  0  0
 14 15  2  0  0  0  0
 15 17  1  0  0  0  0
 15 16  1  0  0  0  0
 17 20  1  0  0  0  0
 18 17  1  0  0  0  0
 19 17  1  0  0  0  0
M  RAD  3   2   2   3   3   4   2
M  END
