Coordinates from ORCA-job PhN2+~CF3COO-_B3LYPG-6-31G_dp-CH-Scan-d09-49-n800
 OpenBabel11261919373D

 20 19  0  0  0  0  0  0  0  0999 V2000
   -2.0573    0.6531   -0.2200 C   0  0  0  0  0  0  0  0  0  0  0  0
   -3.4491    0.4994   -0.4333 N   0  0  0  0  0  0  0  0  0  0  0  0
   -4.3687   -0.1093   -0.6374 N   0  0  0  0  0  0  0  0  0  0  0  0
   -1.4360    1.8984   -0.2734 C   0  0  0  0  0  0  0  0  0  0  0  0
   -0.0503    1.9002   -0.0876 C   0  0  0  0  0  0  0  0  0  0  0  0
    0.6539    0.7193    0.1503 C   0  0  0  0  0  0  0  0  0  0  0  0
   -0.0119   -0.5149    0.1981 C   0  0  0  0  0  0  0  0  0  0  0  0
   -1.3827   -0.5661    0.0062 C   0  0  0  0  0  0  0  0  0  0  0  0
   -2.1125    2.9737   -0.4699 H   0  0  0  0  0  0  0  0  0  0  0  0
    0.4811    2.8464   -0.1229 H   0  0  0  0  0  0  0  0  0  0  0  0
    1.7289    0.7513    0.3036 H   0  0  0  0  0  0  0  0  0  0  0  0
    0.5377   -1.4316    0.3842 H   0  0  0  0  0  0  0  0  0  0  0  0
   -1.9279   -1.5038    0.0320 H   0  0  0  0  0  0  0  0  0  0  0  0
   -4.4270    2.4779   -0.0015 O   0  0  0  0  0  0  0  0  0  0  0  0
   -4.1623    3.6839   -0.2465 C   0  0  0  0  0  0  0  0  0  0  0  0
   -3.0770    4.1998   -0.5900 O   0  0  0  0  0  0  0  0  0  0  0  0
   -5.3731    4.6432   -0.0652 C   0  0  0  0  0  0  0  0  0  0  0  0
   -5.1093    5.8852   -0.4982 F   0  0  0  0  0  0  0  0  0  0  0  0
   -6.4503    4.1901   -0.7380 F   0  0  0  0  0  0  0  0  0  0  0  0
   -5.7078    4.7227    1.2411 F   0  0  0  0  0  0  0  0  0  0  0  0
  1  8  1  0  0  0  0
  2  1  1  0  0  0  0
  3  2  2  0  0  0  0
  4  1  2  0  0  0  0
  4  5  1  0  0  0  0
  5  6  2  0  0  0  0
  6  7  1  0  0  0  0
  6 11  1  0  0  0  0
  7 12  1  0  0  0  0
  8 13  1  0  0  0  0
  8  7  2  0  0  0  0
  9  4  1  0  0  0  0
 10  5  1  0  0  0  0
 15 17  1  0  0  0  0
 15 14  1  0  0  0  0
 16 15  2  0  0  0  0
 17 20  1  0  0  0  0
 18 17  1  0  0  0  0
 19 17  1  0  0  0  0
M  RAD  2   3   2  14   2
M  END
