Coordinates from ORCA-job PhN2+~CF3COO-_B3LYPG-6-31G_dp-CH-Scan-d09-49-n800
 OpenBabel11261919373D

 20 19  0  0  0  0  0  0  0  0999 V2000
   -1.2753    0.1327   -0.1914 C   0  0  0  0  0  0  0  0  0  0  0  0
   -2.6448    0.3168   -0.3851 N   0  0  0  0  0  0  0  0  0  0  0  0
   -3.7333    0.5314   -0.5345 N   0  0  0  0  0  0  0  0  0  0  0  0
   -0.5902    1.3482   -0.0430 C   0  0  0  0  0  0  0  0  0  0  0  0
    0.7960    1.0775    0.1532 C   0  0  0  0  0  0  0  0  0  0  0  0
    1.3417   -0.2015    0.1884 C   0  0  0  0  0  0  0  0  0  0  0  0
    0.5393   -1.3588    0.0238 C   0  0  0  0  0  0  0  0  0  0  0  0
   -0.8149   -1.2127   -0.1745 C   0  0  0  0  0  0  0  0  0  0  0  0
   -3.2920    5.0643   -0.0825 H   0  0  0  0  0  0  0  0  0  0  0  0
    1.4800    1.9171    0.2871 H   0  0  0  0  0  0  0  0  0  0  0  0
    2.4113   -0.3333    0.3468 H   0  0  0  0  0  0  0  0  0  0  0  0
    0.9877   -2.3468    0.0537 H   0  0  0  0  0  0  0  0  0  0  0  0
   -1.4805   -2.0613   -0.3083 H   0  0  0  0  0  0  0  0  0  0  0  0
   -4.9279    3.3917   -0.3119 O   0  0  0  0  0  0  0  0  0  0  0  0
   -5.1018    4.5781   -0.2067 C   0  0  0  0  0  0  0  0  0  0  0  0
   -4.1549    5.5133   -0.0779 O   0  0  0  0  0  0  0  0  0  0  0  0
   -6.4974    5.2384   -0.2026 C   0  0  0  0  0  0  0  0  0  0  0  0
   -6.6013    6.1148   -1.2167 F   0  0  0  0  0  0  0  0  0  0  0  0
   -7.4465    4.3103   -0.3373 F   0  0  0  0  0  0  0  0  0  0  0  0
   -6.6966    5.8986    0.9512 F   0  0  0  0  0  0  0  0  0  0  0  0
  1  8  2  0  0  0  0
  1  4  1  0  0  0  0
  2  1  1  0  0  0  0
  3  2  1  0  0  0  0
  4  5  2  0  0  0  0
  5  6  1  0  0  0  0
  5 10  1  0  0  0  0
  6 11  1  0  0  0  0
  7 12  1  0  0  0  0
  7  6  2  0  0  0  0
  8  7  1  0  0  0  0
  9 16  1  0  0  0  0
 13  8  1  0  0  0  0
 14 15  2  0  0  0  0
 15 17  1  0  0  0  0
 15 16  1  0  0  0  0
 17 20  1  0  0  0  0
 18 17  1  0  0  0  0
 19 17  1  0  0  0  0
M  RAD  3   2   2   3   3   4   2
M  END
