Coordinates from ORCA-job PhN2+~CF3COO-_B3LYPG-6-31G_dp-CH-Scan-d09-49-n800
 OpenBabel11261919373D

 20 19  0  0  0  0  0  0  0  0999 V2000
   -1.5263    0.1811   -0.1478 C   0  0  0  0  0  0  0  0  0  0  0  0
   -2.9122    0.1876   -0.2914 N   0  0  0  0  0  0  0  0  0  0  0  0
   -4.0228    0.2499   -0.4111 N   0  0  0  0  0  0  0  0  0  0  0  0
   -0.9844    1.4682    0.0001 C   0  0  0  0  0  0  0  0  0  0  0  0
    0.4290    1.3695    0.1426 C   0  0  0  0  0  0  0  0  0  0  0  0
    1.1288    0.1670    0.1321 C   0  0  0  0  0  0  0  0  0  0  0  0
    0.4687   -1.0769   -0.0260 C   0  0  0  0  0  0  0  0  0  0  0  0
   -0.9000   -1.0953   -0.1723 C   0  0  0  0  0  0  0  0  0  0  0  0
   -3.0316    4.2553    0.0113 H   0  0  0  0  0  0  0  0  0  0  0  0
    1.0083    2.2851    0.2691 H   0  0  0  0  0  0  0  0  0  0  0  0
    2.2116    0.1668    0.2490 H   0  0  0  0  0  0  0  0  0  0  0  0
    1.0348   -2.0028   -0.0315 H   0  0  0  0  0  0  0  0  0  0  0  0
   -1.4607   -2.0178   -0.2975 H   0  0  0  0  0  0  0  0  0  0  0  0
   -5.0190    3.0205   -0.3104 O   0  0  0  0  0  0  0  0  0  0  0  0
   -4.9002    4.2143   -0.1948 C   0  0  0  0  0  0  0  0  0  0  0  0
   -3.7672    4.8928   -0.0132 O   0  0  0  0  0  0  0  0  0  0  0  0
   -6.0965    5.1900   -0.2362 C   0  0  0  0  0  0  0  0  0  0  0  0
   -5.9326    6.0912   -1.2203 F   0  0  0  0  0  0  0  0  0  0  0  0
   -7.2318    4.5217   -0.4506 F   0  0  0  0  0  0  0  0  0  0  0  0
   -6.1976    5.8507    0.9307 F   0  0  0  0  0  0  0  0  0  0  0  0
  1  4  1  0  0  0  0
  2  1  1  0  0  0  0
  3  2  1  0  0  0  0
  4  5  2  0  0  0  0
  5 10  1  0  0  0  0
  6  5  1  0  0  0  0
  6 11  1  0  0  0  0
  7  6  2  0  0  0  0
  8  1  2  0  0  0  0
  8  7  1  0  0  0  0
 12  7  1  0  0  0  0
 13  8  1  0  0  0  0
 14 15  2  0  0  0  0
 15 16  1  0  0  0  0
 16  9  1  0  0  0  0
 17 15  1  0  0  0  0
 17 20  1  0  0  0  0
 18 17  1  0  0  0  0
 19 17  1  0  0  0  0
M  RAD  3   2   2   3   3   4   2
M  END
