Coordinates from ORCA-job PhN2+~CF3COO-_B3LYPG-6-31G_dp-CH-Scan-d09-49-n800
 OpenBabel11261919373D

 20 19  0  0  0  0  0  0  0  0999 V2000
   -2.0635    0.6758   -0.1168 C   0  0  0  0  0  0  0  0  0  0  0  0
   -3.4750    0.5776   -0.2025 N   0  0  0  0  0  0  0  0  0  0  0  0
   -4.3967   -0.0649   -0.2612 N   0  0  0  0  0  0  0  0  0  0  0  0
   -1.4140    1.9051   -0.1890 C   0  0  0  0  0  0  0  0  0  0  0  0
   -0.0201    1.8892   -0.1105 C   0  0  0  0  0  0  0  0  0  0  0  0
    0.6777    0.6905    0.0391 C   0  0  0  0  0  0  0  0  0  0  0  0
   -0.0079   -0.5299    0.1088 C   0  0  0  0  0  0  0  0  0  0  0  0
   -1.3925   -0.5528    0.0283 C   0  0  0  0  0  0  0  0  0  0  0  0
   -1.9388    2.7790   -0.2981 H   0  0  0  0  0  0  0  0  0  0  0  0
    0.5150    2.8315   -0.1658 H   0  0  0  0  0  0  0  0  0  0  0  0
    1.7618    0.6999    0.1033 H   0  0  0  0  0  0  0  0  0  0  0  0
    0.5365   -1.4611    0.2260 H   0  0  0  0  0  0  0  0  0  0  0  0
   -1.9511   -1.4810    0.0781 H   0  0  0  0  0  0  0  0  0  0  0  0
   -4.3672    2.5367   -0.0816 O   0  0  0  0  0  0  0  0  0  0  0  0
   -4.1255    3.7798   -0.2350 C   0  0  0  0  0  0  0  0  0  0  0  0
   -3.0620    4.3717   -0.4325 O   0  0  0  0  0  0  0  0  0  0  0  0
   -5.4342    4.6268   -0.1572 C   0  0  0  0  0  0  0  0  0  0  0  0
   -5.1887    5.9416   -0.2606 F   0  0  0  0  0  0  0  0  0  0  0  0
   -6.2800    4.2854   -1.1537 F   0  0  0  0  0  0  0  0  0  0  0  0
   -6.0753    4.4180    1.0127 F   0  0  0  0  0  0  0  0  0  0  0  0
  1  8  1  0  0  0  0
  2  1  1  0  0  0  0
  3  2  2  0  0  0  0
  4  1  2  0  0  0  0
  4  5  1  0  0  0  0
  5  6  2  0  0  0  0
  6 11  1  0  0  0  0
  6  7  1  0  0  0  0
  7 12  1  0  0  0  0
  8 13  1  0  0  0  0
  8  7  2  0  0  0  0
  9  4  1  0  0  0  0
 10  5  1  0  0  0  0
 15 17  1  0  0  0  0
 15 14  1  0  0  0  0
 16 15  2  0  0  0  0
 17 20  1  0  0  0  0
 18 17  1  0  0  0  0
 19 17  1  0  0  0  0
M  RAD  2   3   2  14   2
M  END
