Coordinates from ORCA-job PhN2+~CF3COO-_B3LYPG-6-31G_dp-CH-Scan-d09-49-n800
 OpenBabel11261919373D

 20 19  0  0  0  0  0  0  0  0999 V2000
   -1.6858    0.2339   -0.1551 C   0  0  0  0  0  0  0  0  0  0  0  0
   -3.0661    0.1378   -0.3025 N   0  0  0  0  0  0  0  0  0  0  0  0
   -4.1778    0.1108   -0.4163 N   0  0  0  0  0  0  0  0  0  0  0  0
   -1.2256    1.5518    0.0045 C   0  0  0  0  0  0  0  0  0  0  0  0
    0.1881    1.5546    0.1496 C   0  0  0  0  0  0  0  0  0  0  0  0
    0.9694    0.4028    0.1321 C   0  0  0  0  0  0  0  0  0  0  0  0
    0.3965   -0.8808   -0.0367 C   0  0  0  0  0  0  0  0  0  0  0  0
   -0.9678   -0.9925   -0.1864 C   0  0  0  0  0  0  0  0  0  0  0  0
   -2.9031    3.7401    0.0107 H   0  0  0  0  0  0  0  0  0  0  0  0
    0.6995    2.5077    0.2840 H   0  0  0  0  0  0  0  0  0  0  0  0
    2.0490    0.4775    0.2514 H   0  0  0  0  0  0  0  0  0  0  0  0
    1.0238   -1.7661   -0.0476 H   0  0  0  0  0  0  0  0  0  0  0  0
   -1.4622   -1.9508   -0.3198 H   0  0  0  0  0  0  0  0  0  0  0  0
   -5.0689    2.8161   -0.3216 O   0  0  0  0  0  0  0  0  0  0  0  0
   -4.7645    3.9773   -0.1897 C   0  0  0  0  0  0  0  0  0  0  0  0
   -3.5496    4.4766   -0.0033 O   0  0  0  0  0  0  0  0  0  0  0  0
   -5.8054    5.1187   -0.2229 C   0  0  0  0  0  0  0  0  0  0  0  0
   -5.5381    5.9662   -1.2328 F   0  0  0  0  0  0  0  0  0  0  0  0
   -7.0342    4.6240   -0.3947 F   0  0  0  0  0  0  0  0  0  0  0  0
   -5.7787    5.8129    0.9289 F   0  0  0  0  0  0  0  0  0  0  0  0
  1  4  1  0  0  0  0
  2  1  1  0  0  0  0
  3  2  1  0  0  0  0
  4  5  2  0  0  0  0
  5 10  1  0  0  0  0
  6  5  1  0  0  0  0
  6 11  1  0  0  0  0
  7  6  2  0  0  0  0
  8  1  2  0  0  0  0
  8  7  1  0  0  0  0
 12  7  1  0  0  0  0
 13  8  1  0  0  0  0
 14 15  2  0  0  0  0
 15 16  1  0  0  0  0
 16  9  1  0  0  0  0
 17 15  1  0  0  0  0
 17 20  1  0  0  0  0
 18 17  1  0  0  0  0
 19 17  1  0  0  0  0
M  RAD  3   2   2   3   3   4   2
M  END
