Coordinates from ORCA-job PhN2+~CF3COO-_B3LYPG-6-31G_dp-CH-Scan-d09-49-n800
 OpenBabel11261919373D

 20 19  0  0  0  0  0  0  0  0999 V2000
   -1.5339    0.1839   -0.1502 C   0  0  0  0  0  0  0  0  0  0  0  0
   -2.9194    0.1856   -0.2968 N   0  0  0  0  0  0  0  0  0  0  0  0
   -4.0308    0.2431   -0.4102 N   0  0  0  0  0  0  0  0  0  0  0  0
   -0.9961    1.4726   -0.0006 C   0  0  0  0  0  0  0  0  0  0  0  0
    0.4173    1.3785    0.1439 C   0  0  0  0  0  0  0  0  0  0  0  0
    1.1210    0.1783    0.1343 C   0  0  0  0  0  0  0  0  0  0  0  0
    0.4652   -1.0676   -0.0255 C   0  0  0  0  0  0  0  0  0  0  0  0
   -0.9032   -1.0904   -0.1741 C   0  0  0  0  0  0  0  0  0  0  0  0
   -3.0239    4.2305    0.0060 H   0  0  0  0  0  0  0  0  0  0  0  0
    0.9934    2.2959    0.2715 H   0  0  0  0  0  0  0  0  0  0  0  0
    2.2036    0.1816    0.2530 H   0  0  0  0  0  0  0  0  0  0  0  0
    1.0342   -1.9917   -0.0305 H   0  0  0  0  0  0  0  0  0  0  0  0
   -1.4607   -2.0146   -0.3008 H   0  0  0  0  0  0  0  0  0  0  0  0
   -5.0213    3.0097   -0.3102 O   0  0  0  0  0  0  0  0  0  0  0  0
   -4.8934    4.2026   -0.1957 C   0  0  0  0  0  0  0  0  0  0  0  0
   -3.7552    4.8731   -0.0181 O   0  0  0  0  0  0  0  0  0  0  0  0
   -6.0830    5.1867   -0.2338 C   0  0  0  0  0  0  0  0  0  0  0  0
   -5.9168    6.0851   -1.2201 F   0  0  0  0  0  0  0  0  0  0  0  0
   -7.2238    4.5260   -0.4426 F   0  0  0  0  0  0  0  0  0  0  0  0
   -6.1749    5.8500    0.9324 F   0  0  0  0  0  0  0  0  0  0  0  0
  1  4  1  0  0  0  0
  2  1  1  0  0  0  0
  3  2  1  0  0  0  0
  4  5  2  0  0  0  0
  5 10  1  0  0  0  0
  6  5  1  0  0  0  0
  6 11  1  0  0  0  0
  7  6  2  0  0  0  0
  8  1  2  0  0  0  0
  8  7  1  0  0  0  0
 12  7  1  0  0  0  0
 13  8  1  0  0  0  0
 14 15  2  0  0  0  0
 15 16  1  0  0  0  0
 16  9  1  0  0  0  0
 17 15  1  0  0  0  0
 17 20  1  0  0  0  0
 18 17  1  0  0  0  0
 19 17  1  0  0  0  0
M  RAD  3   2   2   3   3   4   2
M  END
