Coordinates from ORCA-job PhN2+~CF3COO-_B3LYPG-6-31G_dp-CH-Scan-d09-49-n800
 OpenBabel11261919373D

 20 19  0  0  0  0  0  0  0  0999 V2000
   -1.9324    0.3232   -0.1905 C   0  0  0  0  0  0  0  0  0  0  0  0
   -3.2913    0.0843   -0.3628 N   0  0  0  0  0  0  0  0  0  0  0  0
   -4.3938   -0.0277   -0.4949 N   0  0  0  0  0  0  0  0  0  0  0  0
   -1.5857    1.6771   -0.0470 C   0  0  0  0  0  0  0  0  0  0  0  0
   -0.1900    1.8282    0.1252 C   0  0  0  0  0  0  0  0  0  0  0  0
    0.6993    0.7559    0.1460 C   0  0  0  0  0  0  0  0  0  0  0  0
    0.2534   -0.5752   -0.0077 C   0  0  0  0  0  0  0  0  0  0  0  0
   -1.0925   -0.8189   -0.1817 C   0  0  0  0  0  0  0  0  0  0  0  0
   -2.6563    3.0116   -0.0634 H   0  0  0  0  0  0  0  0  0  0  0  0
    0.2141    2.8312    0.2496 H   0  0  0  0  0  0  0  0  0  0  0  0
    1.7629    0.9380    0.2844 H   0  0  0  0  0  0  0  0  0  0  0  0
    0.9597   -1.3984    0.0114 H   0  0  0  0  0  0  0  0  0  0  0  0
   -1.4894   -1.8221   -0.3049 H   0  0  0  0  0  0  0  0  0  0  0  0
   -5.0607    2.5609   -0.3200 O   0  0  0  0  0  0  0  0  0  0  0  0
   -4.5138    3.6428   -0.1896 C   0  0  0  0  0  0  0  0  0  0  0  0
   -3.2438    3.9009   -0.0550 O   0  0  0  0  0  0  0  0  0  0  0  0
   -5.3473    4.9471   -0.1711 C   0  0  0  0  0  0  0  0  0  0  0  0
   -4.9865    5.7537   -1.1895 F   0  0  0  0  0  0  0  0  0  0  0  0
   -6.6553    4.6864   -0.2871 F   0  0  0  0  0  0  0  0  0  0  0  0
   -5.1520    5.6199    0.9803 F   0  0  0  0  0  0  0  0  0  0  0  0
  1  8  2  0  0  0  0
  1  4  1  0  0  0  0
  2  1  1  0  0  0  0
  3  2  1  0  0  0  0
  4  5  2  0  0  0  0
  5  6  1  0  0  0  0
  5 10  1  0  0  0  0
  6 11  1  0  0  0  0
  7 12  1  0  0  0  0
  7  6  2  0  0  0  0
  8  7  1  0  0  0  0
  9 16  1  0  0  0  0
 13  8  1  0  0  0  0
 14 15  2  0  0  0  0
 15 17  1  0  0  0  0
 15 16  1  0  0  0  0
 17 20  1  0  0  0  0
 18 17  1  0  0  0  0
 19 17  1  0  0  0  0
M  RAD  3   2   2   3   3   4   2
M  END
