Coordinates from ORCA-job PhN2+~CF3COO-_B3LYPG-6-31G_dp-CH-Scan-d09-49-n800
 OpenBabel11261919373D

 20 19  0  0  0  0  0  0  0  0999 V2000
   -1.5416    0.1867   -0.1510 C   0  0  0  0  0  0  0  0  0  0  0  0
   -2.9270    0.1835   -0.2982 N   0  0  0  0  0  0  0  0  0  0  0  0
   -4.0386    0.2360   -0.4114 N   0  0  0  0  0  0  0  0  0  0  0  0
   -1.0076    1.4770   -0.0008 C   0  0  0  0  0  0  0  0  0  0  0  0
    0.4059    1.3877    0.1443 C   0  0  0  0  0  0  0  0  0  0  0  0
    1.1135    0.1897    0.1348 C   0  0  0  0  0  0  0  0  0  0  0  0
    0.4617   -1.0582   -0.0256 C   0  0  0  0  0  0  0  0  0  0  0  0
   -0.9065   -1.0854   -0.1748 C   0  0  0  0  0  0  0  0  0  0  0  0
   -3.0169    4.2049    0.0046 H   0  0  0  0  0  0  0  0  0  0  0  0
    0.9788    2.3070    0.2723 H   0  0  0  0  0  0  0  0  0  0  0  0
    2.1960    0.1964    0.2540 H   0  0  0  0  0  0  0  0  0  0  0  0
    1.0336   -1.9805   -0.0305 H   0  0  0  0  0  0  0  0  0  0  0  0
   -1.4609   -2.0114   -0.3020 H   0  0  0  0  0  0  0  0  0  0  0  0
   -5.0240    2.9989   -0.3108 O   0  0  0  0  0  0  0  0  0  0  0  0
   -4.8867    4.1909   -0.1956 C   0  0  0  0  0  0  0  0  0  0  0  0
   -3.7438    4.8528   -0.0187 O   0  0  0  0  0  0  0  0  0  0  0  0
   -6.0693    5.1835   -0.2326 C   0  0  0  0  0  0  0  0  0  0  0  0
   -5.8984    6.0797   -1.2203 F   0  0  0  0  0  0  0  0  0  0  0  0
   -7.2152    4.5309   -0.4387 F   0  0  0  0  0  0  0  0  0  0  0  0
   -6.1545    5.8488    0.9329 F   0  0  0  0  0  0  0  0  0  0  0  0
  1  4  1  0  0  0  0
  2  1  1  0  0  0  0
  3  2  1  0  0  0  0
  4  5  2  0  0  0  0
  5 10  1  0  0  0  0
  6  5  1  0  0  0  0
  6 11  1  0  0  0  0
  7  6  2  0  0  0  0
  8  1  2  0  0  0  0
  8  7  1  0  0  0  0
 12  7  1  0  0  0  0
 13  8  1  0  0  0  0
 14 15  2  0  0  0  0
 15 16  1  0  0  0  0
 16  9  1  0  0  0  0
 17 15  1  0  0  0  0
 17 20  1  0  0  0  0
 18 17  1  0  0  0  0
 19 17  1  0  0  0  0
M  RAD  3   2   2   3   3   4   2
M  END
