Coordinates from ORCA-job PhN2+~CF3COO-_B3LYPG-6-31G_dp-CH-Scan-d09-49-n800
 OpenBabel11261919373D

 20 19  0  0  0  0  0  0  0  0999 V2000
   -2.0589    0.6337   -0.1742 C   0  0  0  0  0  0  0  0  0  0  0  0
   -3.4538    0.4564   -0.3330 N   0  0  0  0  0  0  0  0  0  0  0  0
   -4.3863   -0.1474   -0.4796 N   0  0  0  0  0  0  0  0  0  0  0  0
   -1.4583    1.8904   -0.2181 C   0  0  0  0  0  0  0  0  0  0  0  0
   -0.0657    1.8996   -0.0792 C   0  0  0  0  0  0  0  0  0  0  0  0
    0.6614    0.7230    0.1008 C   0  0  0  0  0  0  0  0  0  0  0  0
    0.0131   -0.5215    0.1403 C   0  0  0  0  0  0  0  0  0  0  0  0
   -1.3623   -0.5842   -0.0020 C   0  0  0  0  0  0  0  0  0  0  0  0
   -2.1581    2.9945   -0.3662 H   0  0  0  0  0  0  0  0  0  0  0  0
    0.4549    2.8523   -0.1077 H   0  0  0  0  0  0  0  0  0  0  0  0
    1.7413    0.7651    0.2144 H   0  0  0  0  0  0  0  0  0  0  0  0
    0.5801   -1.4357    0.2811 H   0  0  0  0  0  0  0  0  0  0  0  0
   -1.8953   -1.5291    0.0199 H   0  0  0  0  0  0  0  0  0  0  0  0
   -4.4696    2.4813   -0.0365 O   0  0  0  0  0  0  0  0  0  0  0  0
   -4.1712    3.6862   -0.2180 C   0  0  0  0  0  0  0  0  0  0  0  0
   -3.0463    4.1902   -0.4503 O   0  0  0  0  0  0  0  0  0  0  0  0
   -5.3707    4.6693   -0.1194 C   0  0  0  0  0  0  0  0  0  0  0  0
   -5.0391    5.9192   -0.4760 F   0  0  0  0  0  0  0  0  0  0  0  0
   -6.3837    4.2669   -0.9134 F   0  0  0  0  0  0  0  0  0  0  0  0
   -5.8330    4.7085    1.1490 F   0  0  0  0  0  0  0  0  0  0  0  0
  1  8  1  0  0  0  0
  2  1  1  0  0  0  0
  3  2  2  0  0  0  0
  4  1  2  0  0  0  0
  4  5  1  0  0  0  0
  5  6  2  0  0  0  0
  6  7  1  0  0  0  0
  6 11  1  0  0  0  0
  7 12  1  0  0  0  0
  8 13  1  0  0  0  0
  8  7  2  0  0  0  0
  9  4  1  0  0  0  0
 10  5  1  0  0  0  0
 15 17  1  0  0  0  0
 15 14  1  0  0  0  0
 16 15  2  0  0  0  0
 17 20  1  0  0  0  0
 18 17  1  0  0  0  0
 19 17  1  0  0  0  0
M  RAD  2   3   2  14   2
M  END
