18
Coordinates from ORCA-job PhN2+~BF4-_B3LYPG-6-31G_dp-CH-Scan-d09-49-n800
  C   -1.48079080979999      0.28980210295080      0.11654380898624
  N   -2.86279279631856      0.24775755938102      0.28712652827333
  N   -3.97426684797361      0.28330816340779      0.41305217884475
  C   -1.01706491867497      1.58011926254690     -0.18631148237874
  C   0.39791331275188      1.53929919986587     -0.34988598277162
  C   1.16263696247942      0.38411287866558     -0.22270949759021
  C   0.57535356431006     -0.86798036244209      0.08935064512750
  C   -0.78715418826330     -0.94230035596813      0.26962486396123
  H   -3.51261534595364      4.51183681554289     -0.51107877789687
  H   0.92433234696654      2.46387689155316     -0.59124494335601
  H   2.24148235085969      0.42768148392779     -0.36507576364443
  H   1.19199199306875     -1.75589586846602      0.18487823106661
  H   -1.29428743214376     -1.87263517123447      0.51118432846799
  B   -5.72461032568559      3.19916668800636     -0.12166165128804
  F   -5.21539720793454      2.50626654008982     -1.13597605278276
  F   -4.36963456424739      4.86251072967157     -0.41950314472217
  F   -6.81502678055416      3.92323478754565     -0.29874041934697
  F   -5.29396931288669      2.93303865495555      1.10542713105016
