18
Coordinates from ORCA-job PhN2+~BF4-_B3LYPG-6-31G_dp-CH-Scan-d09-49-n800
  C   -1.99069778154949      0.56286660877859     -0.18355312721240
  N   -3.35577402744860      0.33759996844747     -0.29412390571139
  N   -4.43073967916527      0.06250606442989     -0.39494482874001
  C   -1.47720940802148      1.82864675729884     -0.50139849396378
  C   -0.09834060758729      1.98309688209738     -0.39930292155144
  C   0.71274485757465      0.92169635278239      0.01292159078626
  C   0.16438250386665     -0.33018817267833      0.32347566482105
  C   -1.20481216911458     -0.53008581105844      0.22288697367798
  H   -2.16098319975646      2.61442528965636     -0.80591941686209
  H   0.34235877133819      2.94556665235173     -0.63572803884598
  H   1.78548668146559      1.06804681865892      0.09624601803488
  H   0.80348755243072     -1.14608932962169      0.64278398166896
  H   -1.66264105848567     -1.48456178856609      0.45706449897316
  B   -4.67909354874431      3.01237408707879      0.05881550373576
  F   -5.69512527887031      2.04003032952227     -0.11091011629034
  F   -3.97470852420993      3.11346697343247     -1.17821396288995
  F   -5.18021903487144      4.22228460409011      0.45547243856142
  F   -3.75201604885103      2.49151771329938      1.00942814180793
