Coordinates from ORCA-job 4-NO2PhN2+~HSO4-_B3LYPG-6-31G_dp-CH-Scan-d09-49-n800
 OpenBabel11261919243D

 21 20  0  0  0  0  0  0  0  0999 V2000
   -1.5997   -0.3845   -0.0967 C   0  0  0  0  0  0  0  0  0  0  0  0
   -2.9453   -0.7827   -0.1572 N   0  0  0  0  0  0  0  0  0  0  0  0
   -4.0254   -1.0517   -0.2333 N   0  0  0  0  0  0  0  0  0  0  0  0
   -1.3873    0.9057   -0.5904 C   0  0  0  0  0  0  0  0  0  0  0  0
   -0.0012    1.2313   -0.5025 C   0  0  0  0  0  0  0  0  0  0  0  0
    0.9351    0.3449    0.0087 C   0  0  0  0  0  0  0  0  0  0  0  0
    2.3638    0.7528    0.0698 N   0  0  0  0  0  0  0  0  0  0  0  0
    2.6540    1.8744   -0.3350 O   0  0  0  0  0  0  0  0  0  0  0  0
    3.1665   -0.0612    0.5254 O   0  0  0  0  0  0  0  0  0  0  0  0
    0.6202   -0.9458    0.4860 C   0  0  0  0  0  0  0  0  0  0  0  0
   -0.6963   -1.3416    0.4380 C   0  0  0  0  0  0  0  0  0  0  0  0
   -3.8119    2.9716   -1.5366 H   0  0  0  0  0  0  0  0  0  0  0  0
    0.3589    2.1986   -0.8400 H   0  0  0  0  0  0  0  0  0  0  0  0
    1.4043   -1.5835    0.8710 H   0  0  0  0  0  0  0  0  0  0  0  0
   -1.0152   -2.3194    0.7867 H   0  0  0  0  0  0  0  0  0  0  0  0
   -5.6875    2.8115   -0.5161 S   0  0  0  0  0  0  0  0  0  0  0  0
   -4.6800    3.4043   -1.6314 O   0  0  0  0  0  0  0  0  0  0  0  0
   -7.0100    3.2376   -0.9179 O   0  0  0  0  0  0  0  0  0  0  0  0
   -5.3373    1.4346   -0.2322 O   0  0  0  0  0  0  0  0  0  0  0  0
   -5.2520    3.6448    0.8107 O   0  0  0  0  0  0  0  0  0  0  0  0
   -5.7006    4.5072    0.7819 H   0  0  0  0  0  0  0  0  0  0  0  0
  1 11  2  0  0  0  0
  2  1  1  0  0  0  0
  3  2  1  0  0  0  0
  4  5  2  0  0  0  0
  4  1  1  0  0  0  0
  5  6  1  0  0  0  0
  6  7  1  0  0  0  0
  6 10  2  0  0  0  0
  7  9  2  0  0  0  0
  8  7  2  0  0  0  0
 10 14  1  0  0  0  0
 11 10  1  0  0  0  0
 11 15  1  0  0  0  0
 13  5  1  0  0  0  0
 16 19  2  0  0  0  0
 16 20  1  0  0  0  0
 17 12  1  0  0  0  0
 17 16  1  0  0  0  0
 18 16  2  0  0  0  0
 21 20  1  0  0  0  0
M  RAD  3   2   2   3   3   4   2
M  END
