Coordinates from ORCA-job 4-NO2PhN2+~HSO4-_B3LYPG-6-31G_dp-CH-Scan-d09-49-n800
 OpenBabel11261919243D

 21 20  0  0  0  0  0  0  0  0999 V2000
   -1.6032   -0.3844   -0.0971 C   0  0  0  0  0  0  0  0  0  0  0  0
   -2.9484   -0.7839   -0.1565 N   0  0  0  0  0  0  0  0  0  0  0  0
   -4.0282   -1.0543   -0.2298 N   0  0  0  0  0  0  0  0  0  0  0  0
   -1.3920    0.9065   -0.5895 C   0  0  0  0  0  0  0  0  0  0  0  0
   -0.0061    1.2331   -0.5030 C   0  0  0  0  0  0  0  0  0  0  0  0
    0.9314    0.3468    0.0063 C   0  0  0  0  0  0  0  0  0  0  0  0
    2.3598    0.7556    0.0659 N   0  0  0  0  0  0  0  0  0  0  0  0
    2.6474    1.8811   -0.3298 O   0  0  0  0  0  0  0  0  0  0  0  0
    3.1622   -0.0547    0.5288 O   0  0  0  0  0  0  0  0  0  0  0  0
    0.6179   -0.9445    0.4826 C   0  0  0  0  0  0  0  0  0  0  0  0
   -0.6984   -1.3413    0.4357 C   0  0  0  0  0  0  0  0  0  0  0  0
   -3.8021    2.9598   -1.5305 H   0  0  0  0  0  0  0  0  0  0  0  0
    0.3528    2.2010   -0.8399 H   0  0  0  0  0  0  0  0  0  0  0  0
    1.4028   -1.5820    0.8661 H   0  0  0  0  0  0  0  0  0  0  0  0
   -1.0162   -2.3197    0.7837 H   0  0  0  0  0  0  0  0  0  0  0  0
   -5.6814    2.8097   -0.5155 S   0  0  0  0  0  0  0  0  0  0  0  0
   -4.6682    3.3958   -1.6289 O   0  0  0  0  0  0  0  0  0  0  0  0
   -7.0010    3.2404   -0.9221 O   0  0  0  0  0  0  0  0  0  0  0  0
   -5.3380    1.4319   -0.2274 O   0  0  0  0  0  0  0  0  0  0  0  0
   -5.2465    3.6440    0.8110 O   0  0  0  0  0  0  0  0  0  0  0  0
   -5.6913    4.5082    0.7788 H   0  0  0  0  0  0  0  0  0  0  0  0
  1 11  2  0  0  0  0
  2  1  1  0  0  0  0
  3  2  1  0  0  0  0
  4  5  2  0  0  0  0
  4  1  1  0  0  0  0
  5  6  1  0  0  0  0
  6  7  1  0  0  0  0
  6 10  2  0  0  0  0
  7  9  2  0  0  0  0
  8  7  2  0  0  0  0
 10 14  1  0  0  0  0
 11 10  1  0  0  0  0
 11 15  1  0  0  0  0
 13  5  1  0  0  0  0
 16 19  2  0  0  0  0
 16 20  1  0  0  0  0
 17 12  1  0  0  0  0
 17 16  1  0  0  0  0
 18 16  2  0  0  0  0
 21 20  1  0  0  0  0
M  RAD  3   2   2   3   3   4   2
M  END
