Coordinates from ORCA-job 4-NO2PhN2+~HSO4-_B3LYPG-6-31G_dp-CH-Scan-d09-49-n800
 OpenBabel11261919243D

 21 20  0  0  0  0  0  0  0  0999 V2000
   -1.8273   -0.3619   -0.1371 C   0  0  0  0  0  0  0  0  0  0  0  0
   -3.1364   -0.8498   -0.2042 N   0  0  0  0  0  0  0  0  0  0  0  0
   -4.1913   -1.2015   -0.2737 N   0  0  0  0  0  0  0  0  0  0  0  0
   -1.6792    0.9656   -0.5600 C   0  0  0  0  0  0  0  0  0  0  0  0
   -0.3205    1.3716   -0.4662 C   0  0  0  0  0  0  0  0  0  0  0  0
    0.6719    0.5155   -0.0110 C   0  0  0  0  0  0  0  0  0  0  0  0
    2.0744    1.0050    0.0591 N   0  0  0  0  0  0  0  0  0  0  0  0
    2.2911    2.1589   -0.2957 O   0  0  0  0  0  0  0  0  0  0  0  0
    2.9258    0.2186    0.4708 O   0  0  0  0  0  0  0  0  0  0  0  0
    0.4366   -0.8119    0.3976 C   0  0  0  0  0  0  0  0  0  0  0  0
   -0.8558   -1.2817    0.3374 C   0  0  0  0  0  0  0  0  0  0  0  0
   -3.2775    2.2775   -1.2068 H   0  0  0  0  0  0  0  0  0  0  0  0
   -0.0267    2.3756   -0.7540 H   0  0  0  0  0  0  0  0  0  0  0  0
    1.2591   -1.4234    0.7432 H   0  0  0  0  0  0  0  0  0  0  0  0
   -1.1119   -2.2931    0.6369 H   0  0  0  0  0  0  0  0  0  0  0  0
   -5.2588    2.6676   -0.4681 S   0  0  0  0  0  0  0  0  0  0  0  0
   -4.0412    2.8669   -1.4753 O   0  0  0  0  0  0  0  0  0  0  0  0
   -6.4160    3.2903   -1.0786 O   0  0  0  0  0  0  0  0  0  0  0  0
   -5.2742    1.3014    0.0287 O   0  0  0  0  0  0  0  0  0  0  0  0
   -4.8139    3.5702    0.8164 O   0  0  0  0  0  0  0  0  0  0  0  0
   -5.0750    4.4878    0.6295 H   0  0  0  0  0  0  0  0  0  0  0  0
  1 11  2  0  0  0  0
  2  1  1  0  0  0  0
  3  2  1  0  0  0  0
  4  5  2  0  0  0  0
  4  1  1  0  0  0  0
  5  6  1  0  0  0  0
  6  7  1  0  0  0  0
  6 10  2  0  0  0  0
  7  9  2  0  0  0  0
  8  7  2  0  0  0  0
 10 14  1  0  0  0  0
 11 10  1  0  0  0  0
 11 15  1  0  0  0  0
 13  5  1  0  0  0  0
 16 19  2  0  0  0  0
 16 20  1  0  0  0  0
 17 12  1  0  0  0  0
 17 16  1  0  0  0  0
 18 16  2  0  0  0  0
 21 20  1  0  0  0  0
M  RAD  3   2   2   3   3   4   2
M  END
