Coordinates from ORCA-job 4-NO2PhN2+~HSO4-_B3LYPG-6-31G_dp-CH-Scan-d09-49-n800
 OpenBabel11261919243D

 21 20  0  0  0  0  0  0  0  0999 V2000
   -1.7327   -0.3697   -0.1142 C   0  0  0  0  0  0  0  0  0  0  0  0
   -3.0572   -0.8219   -0.1762 N   0  0  0  0  0  0  0  0  0  0  0  0
   -4.1222   -1.1436   -0.2476 N   0  0  0  0  0  0  0  0  0  0  0  0
   -1.5594    0.9449   -0.5624 C   0  0  0  0  0  0  0  0  0  0  0  0
   -0.1880    1.3171   -0.4750 C   0  0  0  0  0  0  0  0  0  0  0  0
    0.7830    0.4454   -0.0041 C   0  0  0  0  0  0  0  0  0  0  0  0
    2.1974    0.9002    0.0574 N   0  0  0  0  0  0  0  0  0  0  0  0
    2.4446    2.0416   -0.3187 O   0  0  0  0  0  0  0  0  0  0  0  0
    3.0300    0.1005    0.4826 O   0  0  0  0  0  0  0  0  0  0  0  0
    0.5157   -0.8694    0.4300 C   0  0  0  0  0  0  0  0  0  0  0  0
   -0.7874   -1.3082    0.3787 C   0  0  0  0  0  0  0  0  0  0  0  0
   -3.4824    2.5531   -1.3312 H   0  0  0  0  0  0  0  0  0  0  0  0
    0.1332    2.3077   -0.7807 H   0  0  0  0  0  0  0  0  0  0  0  0
    1.3237   -1.4936    0.7868 H   0  0  0  0  0  0  0  0  0  0  0  0
   -1.0687   -2.3074    0.6968 H   0  0  0  0  0  0  0  0  0  0  0  0
   -5.4453    2.7290   -0.4910 S   0  0  0  0  0  0  0  0  0  0  0  0
   -4.2822    3.0859   -1.5379 O   0  0  0  0  0  0  0  0  0  0  0  0
   -6.6628    3.2920   -1.0354 O   0  0  0  0  0  0  0  0  0  0  0  0
   -5.3265    1.3435   -0.0765 O   0  0  0  0  0  0  0  0  0  0  0  0
   -5.0154    3.5979    0.8176 O   0  0  0  0  0  0  0  0  0  0  0  0
   -5.3441    4.5041    0.6899 H   0  0  0  0  0  0  0  0  0  0  0  0
  1 11  2  0  0  0  0
  2  1  1  0  0  0  0
  3  2  1  0  0  0  0
  4  5  2  0  0  0  0
  4  1  1  0  0  0  0
  5  6  1  0  0  0  0
  6  7  1  0  0  0  0
  6 10  2  0  0  0  0
  7  9  2  0  0  0  0
  8  7  2  0  0  0  0
 10 14  1  0  0  0  0
 11 10  1  0  0  0  0
 11 15  1  0  0  0  0
 13  5  1  0  0  0  0
 16 19  2  0  0  0  0
 16 20  1  0  0  0  0
 17 12  1  0  0  0  0
 17 16  1  0  0  0  0
 18 16  2  0  0  0  0
 21 20  1  0  0  0  0
M  RAD  3   2   2   3   3   4   2
M  END
