Coordinates from ORCA-job 4-NO2PhN2+~HSO4-_B3LYPG-6-31G_dp-CH-Scan-d09-49-n800
 OpenBabel11261919243D

 21 20  0  0  0  0  0  0  0  0999 V2000
   -1.6533   -0.4805   -0.5681 C   0  0  0  0  0  0  0  0  0  0  0  0
   -2.9191   -0.9822   -0.9221 N   0  0  0  0  0  0  0  0  0  0  0  0
   -3.9210   -1.3279   -1.2713 N   0  0  0  0  0  0  0  0  0  0  0  0
   -1.2706    0.5856   -1.3821 C   0  0  0  0  0  0  0  0  0  0  0  0
    0.0203    1.0483   -0.9851 C   0  0  0  0  0  0  0  0  0  0  0  0
    0.7172    0.4744    0.0678 C   0  0  0  0  0  0  0  0  0  0  0  0
    2.0535    1.0131    0.4340 N   0  0  0  0  0  0  0  0  0  0  0  0
    2.4739    1.9765   -0.2003 O   0  0  0  0  0  0  0  0  0  0  0  0
    2.6569    0.4606    1.3538 O   0  0  0  0  0  0  0  0  0  0  0  0
    0.2373   -0.6112    0.8339 C   0  0  0  0  0  0  0  0  0  0  0  0
   -0.9987   -1.1235    0.5145 C   0  0  0  0  0  0  0  0  0  0  0  0
   -4.5414    2.9935   -2.0973 H   0  0  0  0  0  0  0  0  0  0  0  0
    0.4928    1.8765   -1.5057 H   0  0  0  0  0  0  0  0  0  0  0  0
    0.8400   -1.0084    1.6396 H   0  0  0  0  0  0  0  0  0  0  0  0
   -1.4343   -1.9579    1.0564 H   0  0  0  0  0  0  0  0  0  0  0  0
   -5.2900    2.6441   -0.1172 S   0  0  0  0  0  0  0  0  0  0  0  0
   -5.2481    3.3875   -1.5567 O   0  0  0  0  0  0  0  0  0  0  0  0
   -6.5352    3.0544    0.4920 O   0  0  0  0  0  0  0  0  0  0  0  0
   -4.8889    1.2621   -0.2820 O   0  0  0  0  0  0  0  0  0  0  0  0
   -4.0595    3.3581    0.6652 O   0  0  0  0  0  0  0  0  0  0  0  0
   -4.3785    4.2062    1.0193 H   0  0  0  0  0  0  0  0  0  0  0  0
  1 11  2  0  0  0  0
  2  1  1  0  0  0  0
  3  2  1  0  0  0  0
  4  5  2  0  0  0  0
  4  1  1  0  0  0  0
  5  6  1  0  0  0  0
  6  7  1  0  0  0  0
  6 10  2  0  0  0  0
  7  9  2  0  0  0  0
  8  7  2  0  0  0  0
 10 14  1  0  0  0  0
 11 10  1  0  0  0  0
 11 15  1  0  0  0  0
 12 17  1  0  0  0  0
 13  5  1  0  0  0  0
 16 18  2  0  0  0  0
 16 20  1  0  0  0  0
 17 16  1  0  0  0  0
 19 16  2  0  0  0  0
 20 21  1  0  0  0  0
M  RAD  3   2   2   3   3   4   2
M  END
