Coordinates from ORCA-job 4-NO2PhN2+~HSO4-_B3LYPG-6-31G_dp-CH-Scan-d09-49-n800
 OpenBabel11261919243D

 21 20  0  0  0  0  0  0  0  0999 V2000
   -1.6342   -0.5097   -1.0503 C   0  0  0  0  0  0  0  0  0  0  0  0
   -2.8352   -1.1189   -1.4678 N   0  0  0  0  0  0  0  0  0  0  0  0
   -3.7382   -1.6269   -1.8810 N   0  0  0  0  0  0  0  0  0  0  0  0
   -0.6256   -0.6574   -2.0001 C   0  0  0  0  0  0  0  0  0  0  0  0
    0.5584    0.0043   -1.5448 C   0  0  0  0  0  0  0  0  0  0  0  0
    0.6010    0.6934   -0.3430 C   0  0  0  0  0  0  0  0  0  0  0  0
    1.8510    1.3935    0.0536 N   0  0  0  0  0  0  0  0  0  0  0  0
    2.8123    1.3203   -0.7050 O   0  0  0  0  0  0  0  0  0  0  0  0
    1.8425    2.0060    1.1222 O   0  0  0  0  0  0  0  0  0  0  0  0
   -0.4831    0.7677    0.5633 C   0  0  0  0  0  0  0  0  0  0  0  0
   -1.6564    0.1360    0.2154 C   0  0  0  0  0  0  0  0  0  0  0  0
   -2.9390    2.8249    0.0235 H   0  0  0  0  0  0  0  0  0  0  0  0
    1.4632   -0.0134   -2.1462 H   0  0  0  0  0  0  0  0  0  0  0  0
   -0.3584    1.2889    1.5032 H   0  0  0  0  0  0  0  0  0  0  0  0
   -2.5241    0.1180    0.8672 H   0  0  0  0  0  0  0  0  0  0  0  0
   -5.0043    2.2847    0.2339 S   0  0  0  0  0  0  0  0  0  0  0  0
   -3.7727    3.3249    0.0889 O   0  0  0  0  0  0  0  0  0  0  0  0
   -6.2020    3.0506   -0.0184 O   0  0  0  0  0  0  0  0  0  0  0  0
   -4.6678    1.0532   -0.4548 O   0  0  0  0  0  0  0  0  0  0  0  0
   -4.9343    1.9083    1.8141 O   0  0  0  0  0  0  0  0  0  0  0  0
   -5.3998    2.6008    2.3149 H   0  0  0  0  0  0  0  0  0  0  0  0
  1 11  2  0  0  0  0
  2  1  1  0  0  0  0
  3  2  1  0  0  0  0
  4  5  2  0  0  0  0
  4  1  1  0  0  0  0
  5  6  1  0  0  0  0
  6  7  1  0  0  0  0
  6 10  2  0  0  0  0
  7  9  2  0  0  0  0
  8  7  2  0  0  0  0
 10 14  1  0  0  0  0
 11 10  1  0  0  0  0
 11 15  1  0  0  0  0
 12 17  1  0  0  0  0
 13  5  1  0  0  0  0
 16 20  1  0  0  0  0
 17 16  1  0  0  0  0
 18 16  2  0  0  0  0
 19 16  2  0  0  0  0
 20 21  1  0  0  0  0
M  RAD  3   2   2   3   3   4   2
M  END
