Coordinates from ORCA-job 4-NO2PhN2+~HSO4-_B3LYPG-6-31G_dp-CH-Scan-d09-49-n800
 OpenBabel11261919243D

 21 20  0  0  0  0  0  0  0  0999 V2000
   -1.6562   -0.4790   -0.5495 C   0  0  0  0  0  0  0  0  0  0  0  0
   -2.9250   -0.9797   -0.8934 N   0  0  0  0  0  0  0  0  0  0  0  0
   -3.9306   -1.3244   -1.2329 N   0  0  0  0  0  0  0  0  0  0  0  0
   -1.2904    0.6055   -1.3469 C   0  0  0  0  0  0  0  0  0  0  0  0
    0.0049    1.0651   -0.9609 C   0  0  0  0  0  0  0  0  0  0  0  0
    0.7208    0.4723    0.0686 C   0  0  0  0  0  0  0  0  0  0  0  0
    2.0607    1.0087    0.4246 N   0  0  0  0  0  0  0  0  0  0  0  0
    2.4699    1.9829   -0.2006 O   0  0  0  0  0  0  0  0  0  0  0  0
    2.6789    0.4425    1.3259 O   0  0  0  0  0  0  0  0  0  0  0  0
    0.2572   -0.6308    0.8196 C   0  0  0  0  0  0  0  0  0  0  0  0
   -0.9817   -1.1415    0.5090 C   0  0  0  0  0  0  0  0  0  0  0  0
   -4.5023    2.9801   -2.0958 H   0  0  0  0  0  0  0  0  0  0  0  0
    0.4659    1.9059   -1.4713 H   0  0  0  0  0  0  0  0  0  0  0  0
    0.8742   -1.0422    1.6072 H   0  0  0  0  0  0  0  0  0  0  0  0
   -1.4053   -1.9890    1.0401 H   0  0  0  0  0  0  0  0  0  0  0  0
   -5.3033    2.6543   -0.1320 S   0  0  0  0  0  0  0  0  0  0  0  0
   -5.2208    3.3824   -1.5774 O   0  0  0  0  0  0  0  0  0  0  0  0
   -6.5596    3.0804    0.4427 O   0  0  0  0  0  0  0  0  0  0  0  0
   -4.9094    1.2676   -0.2724 O   0  0  0  0  0  0  0  0  0  0  0  0
   -4.0865    3.3671    0.6729 O   0  0  0  0  0  0  0  0  0  0  0  0
   -4.4081    4.2206    1.0115 H   0  0  0  0  0  0  0  0  0  0  0  0
  1 11  2  0  0  0  0
  2  1  1  0  0  0  0
  3  2  1  0  0  0  0
  4  5  2  0  0  0  0
  4  1  1  0  0  0  0
  5  6  1  0  0  0  0
  6  7  1  0  0  0  0
  6 10  2  0  0  0  0
  7  9  2  0  0  0  0
  8  7  2  0  0  0  0
 10 14  1  0  0  0  0
 11 10  1  0  0  0  0
 11 15  1  0  0  0  0
 12 17  1  0  0  0  0
 13  5  1  0  0  0  0
 16 18  2  0  0  0  0
 16 20  1  0  0  0  0
 17 16  1  0  0  0  0
 19 16  2  0  0  0  0
 20 21  1  0  0  0  0
M  RAD  3   2   2   3   3   4   2
M  END
