Coordinates from ORCA-job 4-NO2PhN2+~HSO4-_B3LYPG-6-31G_dp-CH-Scan-d09-49-n800
 OpenBabel11261919243D

 21 20  0  0  0  0  0  0  0  0999 V2000
   -1.6545   -0.4793   -0.5548 C   0  0  0  0  0  0  0  0  0  0  0  0
   -2.9227   -0.9796   -0.9016 N   0  0  0  0  0  0  0  0  0  0  0  0
   -3.9275   -1.3242   -1.2435 N   0  0  0  0  0  0  0  0  0  0  0  0
   -1.2836    0.5998   -1.3571 C   0  0  0  0  0  0  0  0  0  0  0  0
    0.0107    1.0599   -0.9680 C   0  0  0  0  0  0  0  0  0  0  0  0
    0.7209    0.4722    0.0683 C   0  0  0  0  0  0  0  0  0  0  0  0
    2.0599    1.0090    0.4274 N   0  0  0  0  0  0  0  0  0  0  0  0
    2.4727    1.9798   -0.2007 O   0  0  0  0  0  0  0  0  0  0  0  0
    2.6738    0.4464    1.3339 O   0  0  0  0  0  0  0  0  0  0  0  0
    0.2523   -0.6257    0.8238 C   0  0  0  0  0  0  0  0  0  0  0  0
   -0.9860   -1.1364    0.5108 C   0  0  0  0  0  0  0  0  0  0  0  0
   -4.5156    2.9845   -2.0963 H   0  0  0  0  0  0  0  0  0  0  0  0
    0.4753    1.8969   -1.4814 H   0  0  0  0  0  0  0  0  0  0  0  0
    0.8651   -1.0332    1.6167 H   0  0  0  0  0  0  0  0  0  0  0  0
   -1.4133   -1.9800    1.0451 H   0  0  0  0  0  0  0  0  0  0  0  0
   -5.3013    2.6518   -0.1278 S   0  0  0  0  0  0  0  0  0  0  0  0
   -5.2309    3.3842   -1.5717 O   0  0  0  0  0  0  0  0  0  0  0  0
   -6.5547    3.0727    0.4569 O   0  0  0  0  0  0  0  0  0  0  0  0
   -4.9044    1.2668   -0.2752 O   0  0  0  0  0  0  0  0  0  0  0  0
   -4.0809    3.3658    0.6706 O   0  0  0  0  0  0  0  0  0  0  0  0
   -4.4022    4.2176    1.0136 H   0  0  0  0  0  0  0  0  0  0  0  0
  1 11  2  0  0  0  0
  2  1  1  0  0  0  0
  3  2  1  0  0  0  0
  4  5  2  0  0  0  0
  4  1  1  0  0  0  0
  5  6  1  0  0  0  0
  6  7  1  0  0  0  0
  6 10  2  0  0  0  0
  7  9  2  0  0  0  0
  8  7  2  0  0  0  0
 10 14  1  0  0  0  0
 11 10  1  0  0  0  0
 11 15  1  0  0  0  0
 12 17  1  0  0  0  0
 13  5  1  0  0  0  0
 16 18  2  0  0  0  0
 16 20  1  0  0  0  0
 17 16  1  0  0  0  0
 19 16  2  0  0  0  0
 20 21  1  0  0  0  0
M  RAD  3   2   2   3   3   4   2
M  END
