Coordinates from ORCA-job 4-NO2PhN2+~HSO4-_B3LYPG-6-31G_dp-CH-Scan-d09-49-n800
 OpenBabel11261919243D

 21 20  0  0  0  0  0  0  0  0999 V2000
   -1.9683   -0.0711   -0.2582 C   0  0  0  0  0  0  0  0  0  0  0  0
   -3.3169   -0.4007   -0.3791 N   0  0  0  0  0  0  0  0  0  0  0  0
   -4.3894   -0.6717   -0.5018 N   0  0  0  0  0  0  0  0  0  0  0  0
   -1.6075    1.2580   -0.5251 C   0  0  0  0  0  0  0  0  0  0  0  0
   -0.2330    1.5123   -0.4071 C   0  0  0  0  0  0  0  0  0  0  0  0
    0.6435    0.4943   -0.0505 C   0  0  0  0  0  0  0  0  0  0  0  0
    2.0931    0.8040    0.0642 N   0  0  0  0  0  0  0  0  0  0  0  0
    2.4427    1.9542   -0.1735 O   0  0  0  0  0  0  0  0  0  0  0  0
    2.8372   -0.1179    0.3892 O   0  0  0  0  0  0  0  0  0  0  0  0
    0.2400   -0.8226    0.2121 C   0  0  0  0  0  0  0  0  0  0  0  0
   -1.1033   -1.1266    0.1069 C   0  0  0  0  0  0  0  0  0  0  0  0
   -2.5845    2.1990   -0.8079 H   0  0  0  0  0  0  0  0  0  0  0  0
    0.1615    2.5055   -0.5870 H   0  0  0  0  0  0  0  0  0  0  0  0
    0.9758   -1.5659    0.4886 H   0  0  0  0  0  0  0  0  0  0  0  0
   -1.4770   -2.1264    0.2991 H   0  0  0  0  0  0  0  0  0  0  0  0
   -4.7919    2.5174   -0.1274 S   0  0  0  0  0  0  0  0  0  0  0  0
   -3.6407    2.9880   -1.0112 O   0  0  0  0  0  0  0  0  0  0  0  0
   -5.8273    1.7974   -0.8908 O   0  0  0  0  0  0  0  0  0  0  0  0
   -4.2800    1.8405    1.0729 O   0  0  0  0  0  0  0  0  0  0  0  0
   -5.4902    3.9102    0.3786 O   0  0  0  0  0  0  0  0  0  0  0  0
   -6.3303    3.9713   -0.1033 H   0  0  0  0  0  0  0  0  0  0  0  0
  1 11  2  0  0  0  0
  2  1  1  0  0  0  0
  3  2  1  0  0  0  0
  4  5  2  0  0  0  0
  4  1  1  0  0  0  0
  5  6  1  0  0  0  0
  6  7  1  0  0  0  0
  6 10  2  0  0  0  0
  7  9  2  0  0  0  0
  8  7  2  0  0  0  0
 10 14  1  0  0  0  0
 11 10  1  0  0  0  0
 11 15  1  0  0  0  0
 13  5  1  0  0  0  0
 16 20  1  0  0  0  0
 16 19  2  0  0  0  0
 17 12  1  0  0  0  0
 17 16  1  0  0  0  0
 18 16  2  0  0  0  0
 21 20  1  0  0  0  0
M  RAD  3   2   2   3   3   4   2
M  END
