Coordinates from ORCA-job 4-NO2PhN2+~HSO4-_B3LYPG-6-31G_dp-CH-Scan-d09-49-n800
 OpenBabel11261919243D

 21 20  0  0  0  0  0  0  0  0999 V2000
   -1.6769   -0.4956   -0.7138 C   0  0  0  0  0  0  0  0  0  0  0  0
   -2.9038   -1.0331   -1.1439 N   0  0  0  0  0  0  0  0  0  0  0  0
   -3.8655   -1.4141   -1.5629 N   0  0  0  0  0  0  0  0  0  0  0  0
   -1.1758    0.4340   -1.6243 C   0  0  0  0  0  0  0  0  0  0  0  0
    0.0685    0.9454   -1.1462 C   0  0  0  0  0  0  0  0  0  0  0  0
    0.6207    0.5322    0.0574 C   0  0  0  0  0  0  0  0  0  0  0  0
    1.9140    1.1154    0.5017 N   0  0  0  0  0  0  0  0  0  0  0  0
    2.4343    1.9646   -0.2164 O   0  0  0  0  0  0  0  0  0  0  0  0
    2.3850    0.7115    1.5649 O   0  0  0  0  0  0  0  0  0  0  0  0
    0.0277   -0.4242    0.9116 C   0  0  0  0  0  0  0  0  0  0  0  0
   -1.1729   -0.9726    0.5237 C   0  0  0  0  0  0  0  0  0  0  0  0
   -4.6739    3.0007   -2.0476 H   0  0  0  0  0  0  0  0  0  0  0  0
    0.6185    1.6843   -1.7224 H   0  0  0  0  0  0  0  0  0  0  0  0
    0.5196   -0.6988    1.8348 H   0  0  0  0  0  0  0  0  0  0  0  0
   -1.6910   -1.7122    1.1273 H   0  0  0  0  0  0  0  0  0  0  0  0
   -5.0914    2.5362    0.0041 S   0  0  0  0  0  0  0  0  0  0  0  0
   -5.2778    3.3643   -1.3768 O   0  0  0  0  0  0  0  0  0  0  0  0
   -6.2240    2.8948    0.8275 O   0  0  0  0  0  0  0  0  0  0  0  0
   -4.7202    1.1715   -0.3104 O   0  0  0  0  0  0  0  0  0  0  0  0
   -3.7523    3.2117    0.6230 O   0  0  0  0  0  0  0  0  0  0  0  0
   -4.0091    4.0329    1.0775 H   0  0  0  0  0  0  0  0  0  0  0  0
  1 11  2  0  0  0  0
  2  1  1  0  0  0  0
  3  2  1  0  0  0  0
  4  5  2  0  0  0  0
  4  1  1  0  0  0  0
  5  6  1  0  0  0  0
  6  7  1  0  0  0  0
  6 10  2  0  0  0  0
  7  9  2  0  0  0  0
  8  7  2  0  0  0  0
 10 14  1  0  0  0  0
 11 10  1  0  0  0  0
 11 15  1  0  0  0  0
 12 17  1  0  0  0  0
 13  5  1  0  0  0  0
 16 20  1  0  0  0  0
 16 18  2  0  0  0  0
 17 16  1  0  0  0  0
 19 16  2  0  0  0  0
 20 21  1  0  0  0  0
M  RAD  3   2   2   3   3   4   2
M  END
