Coordinates from ORCA-job 4-NO2PhN2+~HSO4-_B3LYPG-6-31G_dp-CH-Scan-d09-49-n800
 OpenBabel11261919243D

 21 20  0  0  0  0  0  0  0  0999 V2000
   -1.9984    0.0106   -0.3131 C   0  0  0  0  0  0  0  0  0  0  0  0
   -3.3511   -0.2773   -0.4822 N   0  0  0  0  0  0  0  0  0  0  0  0
   -4.4237   -0.5239   -0.6738 N   0  0  0  0  0  0  0  0  0  0  0  0
   -1.5484    1.3026   -0.6201 C   0  0  0  0  0  0  0  0  0  0  0  0
   -0.1795    1.5253   -0.4705 C   0  0  0  0  0  0  0  0  0  0  0  0
    0.6403    0.4914   -0.0270 C   0  0  0  0  0  0  0  0  0  0  0  0
    2.0938    0.7526    0.1320 N   0  0  0  0  0  0  0  0  0  0  0  0
    2.4950    1.8773   -0.1438 O   0  0  0  0  0  0  0  0  0  0  0  0
    2.7884   -0.1797    0.5274 O   0  0  0  0  0  0  0  0  0  0  0  0
    0.1703   -0.7893    0.2802 C   0  0  0  0  0  0  0  0  0  0  0  0
   -1.1819   -1.0470    0.1315 C   0  0  0  0  0  0  0  0  0  0  0  0
   -2.4076    2.2088   -0.9833 H   0  0  0  0  0  0  0  0  0  0  0  0
    0.2537    2.4943   -0.6852 H   0  0  0  0  0  0  0  0  0  0  0  0
    0.8621   -1.5478    0.6219 H   0  0  0  0  0  0  0  0  0  0  0  0
   -1.6000   -2.0225    0.3527 H   0  0  0  0  0  0  0  0  0  0  0  0
   -4.7283    2.5279   -0.2241 S   0  0  0  0  0  0  0  0  0  0  0  0
   -3.7626    3.0666   -1.2286 O   0  0  0  0  0  0  0  0  0  0  0  0
   -5.7264    1.5753   -0.7855 O   0  0  0  0  0  0  0  0  0  0  0  0
   -4.0530    1.9954    0.9799 O   0  0  0  0  0  0  0  0  0  0  0  0
   -5.5796    3.8630    0.2051 O   0  0  0  0  0  0  0  0  0  0  0  0
   -6.4097    3.5453    0.5955 H   0  0  0  0  0  0  0  0  0  0  0  0
  1 11  2  0  0  0  0
  2  1  1  0  0  0  0
  3  2  1  0  0  0  0
  4  5  2  0  0  0  0
  4  1  1  0  0  0  0
  5  6  1  0  0  0  0
  6  7  1  0  0  0  0
  6 10  2  0  0  0  0
  7  9  2  0  0  0  0
  8  7  2  0  0  0  0
 10 14  1  0  0  0  0
 11 10  1  0  0  0  0
 11 15  1  0  0  0  0
 12  4  1  0  0  0  0
 13  5  1  0  0  0  0
 16 20  1  0  0  0  0
 16 19  1  0  0  0  0
 17 16  2  0  0  0  0
 18 16  2  0  0  0  0
 20 21  1  0  0  0  0
M  RAD  3   2   2   3   3  19   2
M  END
