Coordinates from ORCA-job 4-NO2PhN2+~HSO4-_B3LYPG-6-31G_dp-CH-Scan-d09-49-n800
 OpenBabel11261919243D

 21 20  0  0  0  0  0  0  0  0999 V2000
   -1.8108   -0.3635   -0.1347 C   0  0  0  0  0  0  0  0  0  0  0  0
   -3.1224   -0.8456   -0.2023 N   0  0  0  0  0  0  0  0  0  0  0  0
   -4.1790   -1.1925   -0.2729 N   0  0  0  0  0  0  0  0  0  0  0  0
   -1.6585    0.9620   -0.5616 C   0  0  0  0  0  0  0  0  0  0  0  0
   -0.2977    1.3625   -0.4675 C   0  0  0  0  0  0  0  0  0  0  0  0
    0.6909    0.5038   -0.0090 C   0  0  0  0  0  0  0  0  0  0  0  0
    2.0953    0.9877    0.0610 N   0  0  0  0  0  0  0  0  0  0  0  0
    2.3175    2.1394   -0.2979 O   0  0  0  0  0  0  0  0  0  0  0  0
    2.9434    0.1989    0.4749 O   0  0  0  0  0  0  0  0  0  0  0  0
    0.4501   -0.8217    0.4035 C   0  0  0  0  0  0  0  0  0  0  0  0
   -0.8441   -1.2866    0.3436 C   0  0  0  0  0  0  0  0  0  0  0  0
   -3.3156    2.3231   -1.2317 H   0  0  0  0  0  0  0  0  0  0  0  0
    0.0009    2.3644   -0.7579 H   0  0  0  0  0  0  0  0  0  0  0  0
    1.2700   -1.4353    0.7516 H   0  0  0  0  0  0  0  0  0  0  0  0
   -1.1044   -2.2961    0.6459 H   0  0  0  0  0  0  0  0  0  0  0  0
   -5.2918    2.6777   -0.4692 S   0  0  0  0  0  0  0  0  0  0  0  0
   -4.0854    2.9010   -1.4892 O   0  0  0  0  0  0  0  0  0  0  0  0
   -6.4608    3.2901   -1.0668 O   0  0  0  0  0  0  0  0  0  0  0  0
   -5.2833    1.3084    0.0171 O   0  0  0  0  0  0  0  0  0  0  0  0
   -4.8446    3.5776    0.8154 O   0  0  0  0  0  0  0  0  0  0  0  0
   -5.1162    4.4938    0.6367 H   0  0  0  0  0  0  0  0  0  0  0  0
  1 11  2  0  0  0  0
  2  1  1  0  0  0  0
  3  2  1  0  0  0  0
  4  5  2  0  0  0  0
  4  1  1  0  0  0  0
  5  6  1  0  0  0  0
  6  7  1  0  0  0  0
  6 10  2  0  0  0  0
  7  9  2  0  0  0  0
  8  7  2  0  0  0  0
 10 14  1  0  0  0  0
 11 10  1  0  0  0  0
 11 15  1  0  0  0  0
 13  5  1  0  0  0  0
 16 19  2  0  0  0  0
 16 20  1  0  0  0  0
 17 12  1  0  0  0  0
 17 16  1  0  0  0  0
 18 16  2  0  0  0  0
 21 20  1  0  0  0  0
M  RAD  3   2   2   3   3   4   2
M  END
