Coordinates from ORCA-job 4-NO2PhN2+~HSO4-_B3LYPG-6-31G_dp-CH-Scan-d09-49-n800
 OpenBabel11261919243D

 21 20  0  0  0  0  0  0  0  0999 V2000
   -1.5871   -0.3863   -0.0987 C   0  0  0  0  0  0  0  0  0  0  0  0
   -2.9344   -0.7795   -0.1612 N   0  0  0  0  0  0  0  0  0  0  0  0
   -4.0153   -1.0433   -0.2445 N   0  0  0  0  0  0  0  0  0  0  0  0
   -1.3700    0.9004   -0.5987 C   0  0  0  0  0  0  0  0  0  0  0  0
    0.0171    1.2223   -0.5080 C   0  0  0  0  0  0  0  0  0  0  0  0
    0.9490    0.3358    0.0112 C   0  0  0  0  0  0  0  0  0  0  0  0
    2.3786    0.7397    0.0751 N   0  0  0  0  0  0  0  0  0  0  0  0
    2.6737    1.8585   -0.3342 O   0  0  0  0  0  0  0  0  0  0  0  0
    3.1778   -0.0750    0.5357 O   0  0  0  0  0  0  0  0  0  0  0  0
    0.6287   -0.9515    0.4942 C   0  0  0  0  0  0  0  0  0  0  0  0
   -0.6888   -1.3438    0.4440 C   0  0  0  0  0  0  0  0  0  0  0  0
   -3.8521    3.0111   -1.5638 H   0  0  0  0  0  0  0  0  0  0  0  0
    0.3813    2.1867   -0.8493 H   0  0  0  0  0  0  0  0  0  0  0  0
    1.4097   -1.5895    0.8850 H   0  0  0  0  0  0  0  0  0  0  0  0
   -1.0119   -2.3187    0.7967 H   0  0  0  0  0  0  0  0  0  0  0  0
   -5.7090    2.8183   -0.5145 S   0  0  0  0  0  0  0  0  0  0  0  0
   -4.7275    3.4310   -1.6432 O   0  0  0  0  0  0  0  0  0  0  0  0
   -7.0433    3.2279   -0.8937 O   0  0  0  0  0  0  0  0  0  0  0  0
   -5.3343    1.4455   -0.2439 O   0  0  0  0  0  0  0  0  0  0  0  0
   -5.2639    3.6516    0.8090 O   0  0  0  0  0  0  0  0  0  0  0  0
   -5.7248    4.5079    0.7916 H   0  0  0  0  0  0  0  0  0  0  0  0
  1 11  2  0  0  0  0
  2  1  1  0  0  0  0
  3  2  1  0  0  0  0
  4  5  2  0  0  0  0
  4  1  1  0  0  0  0
  5  6  1  0  0  0  0
  6  7  1  0  0  0  0
  6 10  2  0  0  0  0
  7  9  2  0  0  0  0
  8  7  2  0  0  0  0
 10 14  1  0  0  0  0
 11 10  1  0  0  0  0
 11 15  1  0  0  0  0
 13  5  1  0  0  0  0
 16 19  2  0  0  0  0
 16 20  1  0  0  0  0
 17 12  1  0  0  0  0
 17 16  1  0  0  0  0
 18 16  2  0  0  0  0
 21 20  1  0  0  0  0
M  RAD  3   2   2   3   3   4   2
M  END
