Coordinates from ORCA-job 4-NO2PhN2+~HSO4-_B3LYPG-6-31G_dp-CH-Scan-d09-49-n800
 OpenBabel11261919243D

 21 20  0  0  0  0  0  0  0  0999 V2000
   -1.6241   -0.5014   -1.0548 C   0  0  0  0  0  0  0  0  0  0  0  0
   -2.8273   -1.1057   -1.4737 N   0  0  0  0  0  0  0  0  0  0  0  0
   -3.7328   -1.6093   -1.8870 N   0  0  0  0  0  0  0  0  0  0  0  0
   -0.6158   -0.6537   -2.0037 C   0  0  0  0  0  0  0  0  0  0  0  0
    0.5721   -0.0012   -1.5460 C   0  0  0  0  0  0  0  0  0  0  0  0
    0.6199    0.6791   -0.3392 C   0  0  0  0  0  0  0  0  0  0  0  0
    1.8760    1.3651    0.0629 N   0  0  0  0  0  0  0  0  0  0  0  0
    2.8411    1.2774   -0.6892 O   0  0  0  0  0  0  0  0  0  0  0  0
    1.8683    1.9817    1.1293 O   0  0  0  0  0  0  0  0  0  0  0  0
   -0.4653    0.7604    0.5647 C   0  0  0  0  0  0  0  0  0  0  0  0
   -1.6438    0.1418    0.2119 C   0  0  0  0  0  0  0  0  0  0  0  0
   -3.0010    2.8947   -0.0285 H   0  0  0  0  0  0  0  0  0  0  0  0
    1.4762   -0.0202   -2.1484 H   0  0  0  0  0  0  0  0  0  0  0  0
   -0.3392    1.2795    1.5056 H   0  0  0  0  0  0  0  0  0  0  0  0
   -2.5148    0.1342    0.8594 H   0  0  0  0  0  0  0  0  0  0  0  0
   -5.0376    2.2799    0.2433 S   0  0  0  0  0  0  0  0  0  0  0  0
   -3.8502    3.3645    0.0556 O   0  0  0  0  0  0  0  0  0  0  0  0
   -6.2695    2.9965    0.0120 O   0  0  0  0  0  0  0  0  0  0  0  0
   -4.6699    1.0543   -0.4400 O   0  0  0  0  0  0  0  0  0  0  0  0
   -4.9151    1.9255    1.8250 O   0  0  0  0  0  0  0  0  0  0  0  0
   -5.3941    2.6059    2.3298 H   0  0  0  0  0  0  0  0  0  0  0  0
  1 11  2  0  0  0  0
  2  1  1  0  0  0  0
  3  2  1  0  0  0  0
  4  5  2  0  0  0  0
  4  1  1  0  0  0  0
  5  6  1  0  0  0  0
  6  7  1  0  0  0  0
  6 10  2  0  0  0  0
  7  9  2  0  0  0  0
  8  7  2  0  0  0  0
 10 14  1  0  0  0  0
 11 10  1  0  0  0  0
 11 15  1  0  0  0  0
 12 17  1  0  0  0  0
 13  5  1  0  0  0  0
 16 20  1  0  0  0  0
 17 16  1  0  0  0  0
 18 16  2  0  0  0  0
 19 16  2  0  0  0  0
 20 21  1  0  0  0  0
M  RAD  3   2   2   3   3   4   2
M  END
