Coordinates from ORCA-job 4-NO2PhN2+~HSO4-_B3LYPG-6-31G_dp-CH-Scan-d09-49-n800
 OpenBabel11261919243D

 21 20  0  0  0  0  0  0  0  0999 V2000
   -1.6055   -0.4541   -0.3368 C   0  0  0  0  0  0  0  0  0  0  0  0
   -2.9222   -0.9019   -0.5510 N   0  0  0  0  0  0  0  0  0  0  0  0
   -3.9732   -1.2040   -0.7728 N   0  0  0  0  0  0  0  0  0  0  0  0
   -1.3282    0.7294   -1.0221 C   0  0  0  0  0  0  0  0  0  0  0  0
    0.0219    1.1199   -0.7701 C   0  0  0  0  0  0  0  0  0  0  0  0
    0.8632    0.3832    0.0502 C   0  0  0  0  0  0  0  0  0  0  0  0
    2.2555    0.8540    0.2737 N   0  0  0  0  0  0  0  0  0  0  0  0
    2.6002    1.8969   -0.2744 O   0  0  0  0  0  0  0  0  0  0  0  0
    2.9772    0.1693    0.9985 O   0  0  0  0  0  0  0  0  0  0  0  0
    0.4828   -0.8104    0.7023 C   0  0  0  0  0  0  0  0  0  0  0  0
   -0.8019   -1.2629    0.5098 C   0  0  0  0  0  0  0  0  0  0  0  0
   -4.2673    3.1288   -2.0026 H   0  0  0  0  0  0  0  0  0  0  0  0
    0.4275    2.0210   -1.2212 H   0  0  0  0  0  0  0  0  0  0  0  0
    1.1958   -1.3339    1.3250 H   0  0  0  0  0  0  0  0  0  0  0  0
   -1.1666   -2.1744    0.9743 H   0  0  0  0  0  0  0  0  0  0  0  0
   -5.5563    2.7671   -0.3283 S   0  0  0  0  0  0  0  0  0  0  0  0
   -5.1091    3.5093   -1.6966 O   0  0  0  0  0  0  0  0  0  0  0  0
   -6.9375    3.1412   -0.1192 O   0  0  0  0  0  0  0  0  0  0  0  0
   -5.0845    1.3984   -0.3512 O   0  0  0  0  0  0  0  0  0  0  0  0
   -4.6366    3.5211    0.7784 O   0  0  0  0  0  0  0  0  0  0  0  0
   -5.0817    4.3509    1.0226 H   0  0  0  0  0  0  0  0  0  0  0  0
  1 11  2  0  0  0  0
  2  1  1  0  0  0  0
  3  2  1  0  0  0  0
  4  5  2  0  0  0  0
  4  1  1  0  0  0  0
  5  6  1  0  0  0  0
  6  7  1  0  0  0  0
  6 10  2  0  0  0  0
  7  9  2  0  0  0  0
  8  7  2  0  0  0  0
 10 14  1  0  0  0  0
 11 10  1  0  0  0  0
 11 15  1  0  0  0  0
 12 17  1  0  0  0  0
 13  5  1  0  0  0  0
 16 18  2  0  0  0  0
 16 20  1  0  0  0  0
 17 16  1  0  0  0  0
 19 16  2  0  0  0  0
 20 21  1  0  0  0  0
M  RAD  3   2   2   3   3   4   2
M  END
