Coordinates from ORCA-job 4-NO2PhN2+~HSO4-_B3LYPG-6-31G_dp-CH-Scan-d09-49-n800
 OpenBabel11261919243D

 21 20  0  0  0  0  0  0  0  0999 V2000
   -1.6929   -0.5045   -0.7799 C   0  0  0  0  0  0  0  0  0  0  0  0
   -2.8997   -1.0623   -1.2388 N   0  0  0  0  0  0  0  0  0  0  0  0
   -3.8403   -1.4662   -1.6835 N   0  0  0  0  0  0  0  0  0  0  0  0
   -1.1289    0.3483   -1.7280 C   0  0  0  0  0  0  0  0  0  0  0  0
    0.0906    0.8872   -1.2173 C   0  0  0  0  0  0  0  0  0  0  0  0
    0.5648    0.5672    0.0465 C   0  0  0  0  0  0  0  0  0  0  0  0
    1.8344    1.1770    0.5220 N   0  0  0  0  0  0  0  0  0  0  0  0
    2.3948    1.9802   -0.2184 O   0  0  0  0  0  0  0  0  0  0  0  0
    2.2475    0.8390    1.6315 O   0  0  0  0  0  0  0  0  0  0  0  0
   -0.0876   -0.3170    0.9346 C   0  0  0  0  0  0  0  0  0  0  0  0
   -1.2686   -0.8870    0.5187 C   0  0  0  0  0  0  0  0  0  0  0  0
   -4.6627    2.9972   -1.9947 H   0  0  0  0  0  0  0  0  0  0  0  0
    0.6826    1.5741   -1.8159 H   0  0  0  0  0  0  0  0  0  0  0  0
    0.3459   -0.5223    1.9039 H   0  0  0  0  0  0  0  0  0  0  0  0
   -1.8298   -1.5742    1.1453 H   0  0  0  0  0  0  0  0  0  0  0  0
   -4.9907    2.4782    0.0594 S   0  0  0  0  0  0  0  0  0  0  0  0
   -5.2272    3.3513   -1.2856 O   0  0  0  0  0  0  0  0  0  0  0  0
   -6.0770    2.8278    0.9462 O   0  0  0  0  0  0  0  0  0  0  0  0
   -4.6576    1.1186   -0.3151 O   0  0  0  0  0  0  0  0  0  0  0  0
   -3.6124    3.1125    0.6338 O   0  0  0  0  0  0  0  0  0  0  0  0
   -3.8318    3.9240    1.1239 H   0  0  0  0  0  0  0  0  0  0  0  0
  1 11  2  0  0  0  0
  2  1  1  0  0  0  0
  3  2  1  0  0  0  0
  4  5  2  0  0  0  0
  4  1  1  0  0  0  0
  5  6  1  0  0  0  0
  6  7  1  0  0  0  0
  6 10  2  0  0  0  0
  7  9  2  0  0  0  0
  8  7  2  0  0  0  0
 10 14  1  0  0  0  0
 11 10  1  0  0  0  0
 11 15  1  0  0  0  0
 12 17  1  0  0  0  0
 13  5  1  0  0  0  0
 16 20  1  0  0  0  0
 16 18  2  0  0  0  0
 17 16  1  0  0  0  0
 19 16  2  0  0  0  0
 20 21  1  0  0  0  0
M  RAD  3   2   2   3   3   4   2
M  END
