Coordinates from ORCA-job 4-NO2PhN2+~HSO4-_B3LYPG-6-31G_dp-CH-Scan-d09-49-n800
 OpenBabel11261919243D

 21 20  0  0  0  0  0  0  0  0999 V2000
   -1.5858   -0.4291   -0.2539 C   0  0  0  0  0  0  0  0  0  0  0  0
   -2.9176   -0.8502   -0.4192 N   0  0  0  0  0  0  0  0  0  0  0  0
   -3.9835   -1.1302   -0.5941 N   0  0  0  0  0  0  0  0  0  0  0  0
   -1.3337    0.7991   -0.8679 C   0  0  0  0  0  0  0  0  0  0  0  0
    0.0334    1.1593   -0.6697 C   0  0  0  0  0  0  0  0  0  0  0  0
    0.9130    0.3570    0.0417 C   0  0  0  0  0  0  0  0  0  0  0  0
    2.3225    0.7981    0.2132 N   0  0  0  0  0  0  0  0  0  0  0  0
    2.6492    1.8709   -0.2859 O   0  0  0  0  0  0  0  0  0  0  0  0
    3.0756    0.0590    0.8468 O   0  0  0  0  0  0  0  0  0  0  0  0
    0.5569   -0.8773    0.6283 C   0  0  0  0  0  0  0  0  0  0  0  0
   -0.7430   -1.3032    0.4826 C   0  0  0  0  0  0  0  0  0  0  0  0
   -4.1518    3.0725   -1.8948 H   0  0  0  0  0  0  0  0  0  0  0  0
    0.4222    2.0881   -1.0771 H   0  0  0  0  0  0  0  0  0  0  0  0
    1.2990   -1.4508    1.1670 H   0  0  0  0  0  0  0  0  0  0  0  0
   -1.0912   -2.2422    0.9027 H   0  0  0  0  0  0  0  0  0  0  0  0
   -5.6509    2.7994   -0.3871 S   0  0  0  0  0  0  0  0  0  0  0  0
   -5.0225    3.4704   -1.7196 O   0  0  0  0  0  0  0  0  0  0  0  0
   -7.0410    3.1980   -0.3724 O   0  0  0  0  0  0  0  0  0  0  0  0
   -5.2042    1.4257   -0.2854 O   0  0  0  0  0  0  0  0  0  0  0  0
   -4.8664    3.5953    0.7926 O   0  0  0  0  0  0  0  0  0  0  0  0
   -5.3269    4.4392    0.9411 H   0  0  0  0  0  0  0  0  0  0  0  0
  1 11  2  0  0  0  0
  2  1  1  0  0  0  0
  3  2  1  0  0  0  0
  4  5  2  0  0  0  0
  4  1  1  0  0  0  0
  5  6  1  0  0  0  0
  6  7  1  0  0  0  0
  6 10  2  0  0  0  0
  7  9  2  0  0  0  0
  8  7  2  0  0  0  0
 10 14  1  0  0  0  0
 11 10  1  0  0  0  0
 11 15  1  0  0  0  0
 12 17  1  0  0  0  0
 13  5  1  0  0  0  0
 16 18  2  0  0  0  0
 16 19  2  0  0  0  0
 16 20  1  0  0  0  0
 17 16  1  0  0  0  0
 20 21  1  0  0  0  0
M  RAD  3   2   2   3   3   4   2
M  END
