Coordinates from ORCA-job 4-NO2PhN2+~HSO4-_B3LYPG-6-31G_dp-CH-Scan-d09-49-n800
 OpenBabel11261919243D

 21 20  0  0  0  0  0  0  0  0999 V2000
   -1.5663   -0.3928   -0.1169 C   0  0  0  0  0  0  0  0  0  0  0  0
   -2.9154   -0.7800   -0.1933 N   0  0  0  0  0  0  0  0  0  0  0  0
   -3.9974   -1.0361   -0.2864 N   0  0  0  0  0  0  0  0  0  0  0  0
   -1.3387    0.8839   -0.6359 C   0  0  0  0  0  0  0  0  0  0  0  0
    0.0485    1.2024   -0.5304 C   0  0  0  0  0  0  0  0  0  0  0  0
    0.9693    0.3222    0.0184 C   0  0  0  0  0  0  0  0  0  0  0  0
    2.3992    0.7224    0.0973 N   0  0  0  0  0  0  0  0  0  0  0  0
    2.7042    1.8343   -0.3235 O   0  0  0  0  0  0  0  0  0  0  0  0
    3.1891   -0.0880    0.5811 O   0  0  0  0  0  0  0  0  0  0  0  0
    0.6374   -0.9558    0.5186 C   0  0  0  0  0  0  0  0  0  0  0  0
   -0.6805   -1.3446    0.4554 C   0  0  0  0  0  0  0  0  0  0  0  0
   -3.9462    3.0864   -1.6419 H   0  0  0  0  0  0  0  0  0  0  0  0
    0.4216    2.1594   -0.8834 H   0  0  0  0  0  0  0  0  0  0  0  0
    1.4104   -1.5894    0.9316 H   0  0  0  0  0  0  0  0  0  0  0  0
   -1.0124   -2.3125    0.8195 H   0  0  0  0  0  0  0  0  0  0  0  0
   -5.7402    2.8271   -0.5006 S   0  0  0  0  0  0  0  0  0  0  0  0
   -4.8377    3.4765   -1.6756 O   0  0  0  0  0  0  0  0  0  0  0  0
   -7.1029    3.2044   -0.8043 O   0  0  0  0  0  0  0  0  0  0  0  0
   -5.3145    1.4629   -0.2651 O   0  0  0  0  0  0  0  0  0  0  0  0
   -5.2454    3.6613    0.8041 O   0  0  0  0  0  0  0  0  0  0  0  0
   -5.7288    4.5051    0.8202 H   0  0  0  0  0  0  0  0  0  0  0  0
  1 11  2  0  0  0  0
  2  1  1  0  0  0  0
  3  2  1  0  0  0  0
  4  5  2  0  0  0  0
  4  1  1  0  0  0  0
  5  6  1  0  0  0  0
  6  7  1  0  0  0  0
  6 10  2  0  0  0  0
  7  9  2  0  0  0  0
  8  7  2  0  0  0  0
 10 14  1  0  0  0  0
 11 10  1  0  0  0  0
 11 15  1  0  0  0  0
 13  5  1  0  0  0  0
 16 19  2  0  0  0  0
 16 20  1  0  0  0  0
 17 12  1  0  0  0  0
 17 16  1  0  0  0  0
 18 16  2  0  0  0  0
 20 21  1  0  0  0  0
M  RAD  3   2   2   3   3   4   2
M  END
