Coordinates from ORCA-job 4-NO2PhN2+~HSO4-_B3LYPG-6-31G_dp-CH-Scan-d09-49-n800
 OpenBabel11261919243D

 21 20  0  0  0  0  0  0  0  0999 V2000
   -1.7388   -0.3694   -0.1157 C   0  0  0  0  0  0  0  0  0  0  0  0
   -3.0623   -0.8241   -0.1778 N   0  0  0  0  0  0  0  0  0  0  0  0
   -4.1267   -1.1479   -0.2494 N   0  0  0  0  0  0  0  0  0  0  0  0
   -1.5673    0.9461   -0.5622 C   0  0  0  0  0  0  0  0  0  0  0  0
   -0.1967    1.3206   -0.4745 C   0  0  0  0  0  0  0  0  0  0  0  0
    0.7758    0.4498   -0.0051 C   0  0  0  0  0  0  0  0  0  0  0  0
    2.1895    0.9069    0.0567 N   0  0  0  0  0  0  0  0  0  0  0  0
    2.4342    2.0501   -0.3153 O   0  0  0  0  0  0  0  0  0  0  0  0
    3.0230    0.1090    0.4833 O   0  0  0  0  0  0  0  0  0  0  0  0
    0.5108   -0.8659    0.4272 C   0  0  0  0  0  0  0  0  0  0  0  0
   -0.7917   -1.3067    0.3756 C   0  0  0  0  0  0  0  0  0  0  0  0
   -3.4693    2.5342   -1.3233 H   0  0  0  0  0  0  0  0  0  0  0  0
    0.1227    2.3122   -0.7790 H   0  0  0  0  0  0  0  0  0  0  0  0
    1.3198   -1.4893    0.7830 H   0  0  0  0  0  0  0  0  0  0  0  0
   -1.0712   -2.3069    0.6924 H   0  0  0  0  0  0  0  0  0  0  0  0
   -5.4336    2.7251   -0.4890 S   0  0  0  0  0  0  0  0  0  0  0  0
   -4.2664    3.0705   -1.5343 O   0  0  0  0  0  0  0  0  0  0  0  0
   -6.6470    3.2925   -1.0379 O   0  0  0  0  0  0  0  0  0  0  0  0
   -5.3240    1.3407   -0.0681 O   0  0  0  0  0  0  0  0  0  0  0  0
   -5.0018    3.5970    0.8172 O   0  0  0  0  0  0  0  0  0  0  0  0
   -5.3255    4.5043    0.6850 H   0  0  0  0  0  0  0  0  0  0  0  0
  1 11  2  0  0  0  0
  2  1  1  0  0  0  0
  3  2  1  0  0  0  0
  4  5  2  0  0  0  0
  4  1  1  0  0  0  0
  5  6  1  0  0  0  0
  6  7  1  0  0  0  0
  6 10  2  0  0  0  0
  7  9  2  0  0  0  0
  8  7  2  0  0  0  0
 10 14  1  0  0  0  0
 11 10  1  0  0  0  0
 11 15  1  0  0  0  0
 13  5  1  0  0  0  0
 16 19  2  0  0  0  0
 16 20  1  0  0  0  0
 17 12  1  0  0  0  0
 17 16  1  0  0  0  0
 18 16  2  0  0  0  0
 21 20  1  0  0  0  0
M  RAD  3   2   2   3   3   4   2
M  END
