Coordinates from ORCA-job 4-NO2PhN2+~HSO4-_B3LYPG-6-31G_dp-CH-Scan-d09-49-n800
 OpenBabel11261919243D

 21 20  0  0  0  0  0  0  0  0999 V2000
   -1.7007   -0.5092   -0.7737 C   0  0  0  0  0  0  0  0  0  0  0  0
   -2.9074   -1.0715   -1.2273 N   0  0  0  0  0  0  0  0  0  0  0  0
   -3.8488   -1.4787   -1.6674 N   0  0  0  0  0  0  0  0  0  0  0  0
   -1.1481    0.3528   -1.7203 C   0  0  0  0  0  0  0  0  0  0  0  0
    0.0712    0.8962   -1.2139 C   0  0  0  0  0  0  0  0  0  0  0  0
    0.5551    0.5722    0.0452 C   0  0  0  0  0  0  0  0  0  0  0  0
    1.8235    1.1875    0.5166 N   0  0  0  0  0  0  0  0  0  0  0  0
    2.3733    1.9999   -0.2219 O   0  0  0  0  0  0  0  0  0  0  0  0
    2.2463    0.8448    1.6209 O   0  0  0  0  0  0  0  0  0  0  0  0
   -0.0862   -0.3212    0.9322 C   0  0  0  0  0  0  0  0  0  0  0  0
   -1.2660   -0.8963    0.5201 C   0  0  0  0  0  0  0  0  0  0  0  0
   -4.6131    3.0003   -1.9954 H   0  0  0  0  0  0  0  0  0  0  0  0
    0.6554    1.5901   -1.8121 H   0  0  0  0  0  0  0  0  0  0  0  0
    0.3544   -0.5292    1.8976 H   0  0  0  0  0  0  0  0  0  0  0  0
   -1.8190   -1.5907    1.1460 H   0  0  0  0  0  0  0  0  0  0  0  0
   -4.9814    2.4792    0.0505 S   0  0  0  0  0  0  0  0  0  0  0  0
   -5.1863    3.3587   -1.2954 O   0  0  0  0  0  0  0  0  0  0  0  0
   -6.0795    2.8352    0.9201 O   0  0  0  0  0  0  0  0  0  0  0  0
   -4.6536    1.1183   -0.3237 O   0  0  0  0  0  0  0  0  0  0  0  0
   -3.6076    3.0995    0.6510 O   0  0  0  0  0  0  0  0  0  0  0  0
   -3.8285    3.9112    1.1400 H   0  0  0  0  0  0  0  0  0  0  0  0
  1 11  2  0  0  0  0
  2  1  1  0  0  0  0
  3  2  1  0  0  0  0
  4  5  2  0  0  0  0
  4  1  1  0  0  0  0
  5  6  1  0  0  0  0
  6  7  1  0  0  0  0
  6 10  2  0  0  0  0
  7  9  2  0  0  0  0
  8  7  2  0  0  0  0
 10 14  1  0  0  0  0
 11 10  1  0  0  0  0
 11 15  1  0  0  0  0
 12 17  1  0  0  0  0
 13  5  1  0  0  0  0
 16 20  1  0  0  0  0
 16 18  2  0  0  0  0
 17 16  1  0  0  0  0
 19 16  2  0  0  0  0
 20 21  1  0  0  0  0
M  RAD  3   2   2   3   3   4   2
M  END
