Coordinates from ORCA-job 4-NO2PhN2+~HSO4-_B3LYPG-6-31G_dp-CH-Scan-d09-49-n800
 OpenBabel11261919243D

 21 20  0  0  0  0  0  0  0  0999 V2000
   -1.6691   -0.4797   -0.5337 C   0  0  0  0  0  0  0  0  0  0  0  0
   -2.9379   -0.9856   -0.8689 N   0  0  0  0  0  0  0  0  0  0  0  0
   -3.9446   -1.3353   -1.1995 N   0  0  0  0  0  0  0  0  0  0  0  0
   -1.3236    0.6245   -1.3135 C   0  0  0  0  0  0  0  0  0  0  0  0
   -0.0264    1.0864   -0.9370 C   0  0  0  0  0  0  0  0  0  0  0  0
    0.7095    0.4783    0.0692 C   0  0  0  0  0  0  0  0  0  0  0  0
    2.0503    1.0184    0.4163 N   0  0  0  0  0  0  0  0  0  0  0  0
    2.4450    2.0047   -0.1991 O   0  0  0  0  0  0  0  0  0  0  0  0
    2.6836    0.4427    1.3009 O   0  0  0  0  0  0  0  0  0  0  0  0
    0.2659   -0.6435    0.8040 C   0  0  0  0  0  0  0  0  0  0  0  0
   -0.9734   -1.1579    0.5009 C   0  0  0  0  0  0  0  0  0  0  0  0
   -4.4394    2.9565   -2.0911 H   0  0  0  0  0  0  0  0  0  0  0  0
    0.4203    1.9415   -1.4362 H   0  0  0  0  0  0  0  0  0  0  0  0
    0.8977   -1.0660    1.5738 H   0  0  0  0  0  0  0  0  0  0  0  0
   -1.3821   -2.0199    1.0202 H   0  0  0  0  0  0  0  0  0  0  0  0
   -5.2934    2.6580   -0.1447 S   0  0  0  0  0  0  0  0  0  0  0  0
   -5.1669    3.3703   -1.5946 O   0  0  0  0  0  0  0  0  0  0  0  0
   -6.5564    3.1081    0.3961 O   0  0  0  0  0  0  0  0  0  0  0  0
   -4.9171    1.2642   -0.2614 O   0  0  0  0  0  0  0  0  0  0  0  0
   -4.0855    3.3614    0.6818 O   0  0  0  0  0  0  0  0  0  0  0  0
   -4.4032    4.2221    1.0053 H   0  0  0  0  0  0  0  0  0  0  0  0
  1 11  2  0  0  0  0
  2  1  1  0  0  0  0
  3  2  1  0  0  0  0
  4  5  2  0  0  0  0
  4  1  1  0  0  0  0
  5  6  1  0  0  0  0
  6  7  1  0  0  0  0
  6 10  2  0  0  0  0
  7  9  2  0  0  0  0
  8  7  2  0  0  0  0
 10 14  1  0  0  0  0
 11 10  1  0  0  0  0
 11 15  1  0  0  0  0
 12 17  1  0  0  0  0
 13  5  1  0  0  0  0
 16 18  2  0  0  0  0
 16 20  1  0  0  0  0
 17 16  1  0  0  0  0
 19 16  2  0  0  0  0
 20 21  1  0  0  0  0
M  RAD  3   2   2   3   3   4   2
M  END
