Coordinates from ORCA-job 4-NO2PhN2+~HSO4-_B3LYPG-6-31G_dp-CH-Scan-d09-49-n800
 OpenBabel11261919243D

 21 20  0  0  0  0  0  0  0  0999 V2000
   -1.6792   -0.4960   -0.6900 C   0  0  0  0  0  0  0  0  0  0  0  0
   -2.9110   -1.0312   -1.1085 N   0  0  0  0  0  0  0  0  0  0  0  0
   -3.8785   -1.4088   -1.5168 N   0  0  0  0  0  0  0  0  0  0  0  0
   -1.2050    0.4641   -1.5832 C   0  0  0  0  0  0  0  0  0  0  0  0
    0.0459    0.9709   -1.1174 C   0  0  0  0  0  0  0  0  0  0  0  0
    0.6276    0.5268    0.0610 C   0  0  0  0  0  0  0  0  0  0  0  0
    1.9262    1.1068    0.4940 N   0  0  0  0  0  0  0  0  0  0  0  0
    2.4260    1.9784   -0.2117 O   0  0  0  0  0  0  0  0  0  0  0  0
    2.4212    0.6787    1.5366 O   0  0  0  0  0  0  0  0  0  0  0  0
    0.0604   -0.4589    0.8994 C   0  0  0  0  0  0  0  0  0  0  0  0
   -1.1443   -1.0051    0.5215 C   0  0  0  0  0  0  0  0  0  0  0  0
   -4.6469    2.9952   -2.0631 H   0  0  0  0  0  0  0  0  0  0  0  0
    0.5777    1.7308   -1.6832 H   0  0  0  0  0  0  0  0  0  0  0  0
    0.5744   -0.7564    1.8032 H   0  0  0  0  0  0  0  0  0  0  0  0
   -1.6433   -1.7667    1.1138 H   0  0  0  0  0  0  0  0  0  0  0  0
   -5.1098    2.5533   -0.0159 S   0  0  0  0  0  0  0  0  0  0  0  0
   -5.2653    3.3660   -1.4097 O   0  0  0  0  0  0  0  0  0  0  0  0
   -6.2583    2.9248    0.7795 O   0  0  0  0  0  0  0  0  0  0  0  0
   -4.7362    1.1838   -0.3058 O   0  0  0  0  0  0  0  0  0  0  0  0
   -3.7820    3.2329    0.6230 O   0  0  0  0  0  0  0  0  0  0  0  0
   -4.0463    4.0598    1.0622 H   0  0  0  0  0  0  0  0  0  0  0  0
  1 11  2  0  0  0  0
  2  1  1  0  0  0  0
  3  2  1  0  0  0  0
  4  5  2  0  0  0  0
  4  1  1  0  0  0  0
  5  6  1  0  0  0  0
  6  7  1  0  0  0  0
  6 10  2  0  0  0  0
  7  9  2  0  0  0  0
  8  7  2  0  0  0  0
 10 14  1  0  0  0  0
 11 10  1  0  0  0  0
 11 15  1  0  0  0  0
 12 17  1  0  0  0  0
 13  5  1  0  0  0  0
 16 20  1  0  0  0  0
 16 18  2  0  0  0  0
 17 16  1  0  0  0  0
 19 16  2  0  0  0  0
 20 21  1  0  0  0  0
M  RAD  3   2   2   3   3   4   2
M  END
