Coordinates from ORCA-job 4-NO2PhN2+~HSO4-_B3LYPG-6-31G_dp-CH-Scan-d09-49-n800
 OpenBabel11261919243D

 21 20  0  0  0  0  0  0  0  0999 V2000
   -1.8828   -0.3550   -0.1574 C   0  0  0  0  0  0  0  0  0  0  0  0
   -3.1829   -0.8619   -0.2322 N   0  0  0  0  0  0  0  0  0  0  0  0
   -4.2318   -1.2289   -0.3070 N   0  0  0  0  0  0  0  0  0  0  0  0
   -1.7434    0.9783   -0.5675 C   0  0  0  0  0  0  0  0  0  0  0  0
   -0.3926    1.4011   -0.4675 C   0  0  0  0  0  0  0  0  0  0  0  0
    0.6089    0.5531   -0.0163 C   0  0  0  0  0  0  0  0  0  0  0  0
    2.0048    1.0596    0.0616 N   0  0  0  0  0  0  0  0  0  0  0  0
    2.2076    2.2179   -0.2862 O   0  0  0  0  0  0  0  0  0  0  0  0
    2.8638    0.2805    0.4708 O   0  0  0  0  0  0  0  0  0  0  0  0
    0.3874   -0.7791    0.3802 C   0  0  0  0  0  0  0  0  0  0  0  0
   -0.8997   -1.2638    0.3116 C   0  0  0  0  0  0  0  0  0  0  0  0
   -3.1436    2.1212   -1.1241 H   0  0  0  0  0  0  0  0  0  0  0  0
   -0.1130    2.4115   -0.7466 H   0  0  0  0  0  0  0  0  0  0  0  0
    1.2155   -1.3842    0.7239 H   0  0  0  0  0  0  0  0  0  0  0  0
   -1.1442   -2.2805    0.6021 H   0  0  0  0  0  0  0  0  0  0  0  0
   -5.1402    2.6287   -0.4460 S   0  0  0  0  0  0  0  0  0  0  0  0
   -3.9029    2.7488   -1.4227 O   0  0  0  0  0  0  0  0  0  0  0  0
   -6.2806    3.2436   -1.0985 O   0  0  0  0  0  0  0  0  0  0  0  0
   -5.2013    1.2873    0.1183 O   0  0  0  0  0  0  0  0  0  0  0  0
   -4.7096    3.5809    0.8112 O   0  0  0  0  0  0  0  0  0  0  0  0
   -4.9661    4.4897    0.5813 H   0  0  0  0  0  0  0  0  0  0  0  0
  1 11  2  0  0  0  0
  2  1  1  0  0  0  0
  3  2  1  0  0  0  0
  4  5  2  0  0  0  0
  4  1  1  0  0  0  0
  5  6  1  0  0  0  0
  6  7  1  0  0  0  0
  6 10  2  0  0  0  0
  7  9  2  0  0  0  0
  8  7  2  0  0  0  0
 10 14  1  0  0  0  0
 11 10  1  0  0  0  0
 11 15  1  0  0  0  0
 13  5  1  0  0  0  0
 16 19  2  0  0  0  0
 16 20  1  0  0  0  0
 17 12  1  0  0  0  0
 17 16  1  0  0  0  0
 18 16  2  0  0  0  0
 21 20  1  0  0  0  0
M  RAD  3   2   2   3   3   4   2
M  END
