Coordinates from ORCA-job 4-NO2PhN2+~HSO4-_B3LYPG-6-31G_dp-CH-Scan-d09-49-n800
 OpenBabel11261919243D

 21 20  0  0  0  0  0  0  0  0999 V2000
   -1.6711   -0.3755   -0.1032 C   0  0  0  0  0  0  0  0  0  0  0  0
   -3.0054   -0.8033   -0.1628 N   0  0  0  0  0  0  0  0  0  0  0  0
   -4.0775   -1.1024   -0.2340 N   0  0  0  0  0  0  0  0  0  0  0  0
   -1.4798    0.9275   -0.5747 C   0  0  0  0  0  0  0  0  0  0  0  0
   -0.1007    1.2770   -0.4890 C   0  0  0  0  0  0  0  0  0  0  0  0
    0.8544    0.3982    0.0004 C   0  0  0  0  0  0  0  0  0  0  0  0
    2.2760    0.8304    0.0588 N   0  0  0  0  0  0  0  0  0  0  0  0
    2.5438    1.9613   -0.3347 O   0  0  0  0  0  0  0  0  0  0  0  0
    3.0947    0.0244    0.4995 O   0  0  0  0  0  0  0  0  0  0  0  0
    0.5647   -0.9048    0.4572 C   0  0  0  0  0  0  0  0  0  0  0  0
   -0.7451   -1.3229    0.4097 C   0  0  0  0  0  0  0  0  0  0  0  0
   -3.6250    2.7544   -1.4227 H   0  0  0  0  0  0  0  0  0  0  0  0
    0.2392    2.2565   -0.8112 H   0  0  0  0  0  0  0  0  0  0  0  0
    1.3616   -1.5354    0.8272 H   0  0  0  0  0  0  0  0  0  0  0  0
   -1.0442   -2.3118    0.7441 H   0  0  0  0  0  0  0  0  0  0  0  0
   -5.5601    2.7678   -0.5069 S   0  0  0  0  0  0  0  0  0  0  0  0
   -4.4562    3.2446   -1.5790 O   0  0  0  0  0  0  0  0  0  0  0  0
   -6.8260    3.2754   -0.9901 O   0  0  0  0  0  0  0  0  0  0  0  0
   -5.3355    1.3783   -0.1600 O   0  0  0  0  0  0  0  0  0  0  0  0
   -5.1358    3.6096    0.8195 O   0  0  0  0  0  0  0  0  0  0  0  0
   -5.5190    4.4999    0.7407 H   0  0  0  0  0  0  0  0  0  0  0  0
  1 11  2  0  0  0  0
  2  1  1  0  0  0  0
  3  2  1  0  0  0  0
  4  5  2  0  0  0  0
  4  1  1  0  0  0  0
  5  6  1  0  0  0  0
  6  7  1  0  0  0  0
  6 10  2  0  0  0  0
  7  9  2  0  0  0  0
  8  7  2  0  0  0  0
 10 14  1  0  0  0  0
 11 10  1  0  0  0  0
 11 15  1  0  0  0  0
 13  5  1  0  0  0  0
 16 19  2  0  0  0  0
 16 20  1  0  0  0  0
 17 12  1  0  0  0  0
 17 16  1  0  0  0  0
 18 16  2  0  0  0  0
 21 20  1  0  0  0  0
M  RAD  3   2   2   3   3   4   2
M  END
