Coordinates from ORCA-job 4-NO2PhN2+~HSO4-_B3LYPG-6-31G_dp-CH-Scan-d09-49-n800
 OpenBabel11261919243D

 21 20  0  0  0  0  0  0  0  0999 V2000
   -1.9196   -0.3415   -0.1740 C   0  0  0  0  0  0  0  0  0  0  0  0
   -3.2167   -0.8515   -0.2553 N   0  0  0  0  0  0  0  0  0  0  0  0
   -4.2632   -1.2230   -0.3325 N   0  0  0  0  0  0  0  0  0  0  0  0
   -1.7729    0.9972   -0.5639 C   0  0  0  0  0  0  0  0  0  0  0  0
   -0.4268    1.4236   -0.4613 C   0  0  0  0  0  0  0  0  0  0  0  0
    0.5759    0.5700   -0.0228 C   0  0  0  0  0  0  0  0  0  0  0  0
    1.9712    1.0772    0.0605 N   0  0  0  0  0  0  0  0  0  0  0  0
    2.1709    2.2399   -0.2733 O   0  0  0  0  0  0  0  0  0  0  0  0
    2.8303    0.2939    0.4601 O   0  0  0  0  0  0  0  0  0  0  0  0
    0.3547   -0.7665    0.3549 C   0  0  0  0  0  0  0  0  0  0  0  0
   -0.9326   -1.2519    0.2803 C   0  0  0  0  0  0  0  0  0  0  0  0
   -3.0133    2.0133   -1.0338 H   0  0  0  0  0  0  0  0  0  0  0  0
   -0.1532    2.4391   -0.7269 H   0  0  0  0  0  0  0  0  0  0  0  0
    1.1830   -1.3763    0.6900 H   0  0  0  0  0  0  0  0  0  0  0  0
   -1.1752   -2.2725    0.5574 H   0  0  0  0  0  0  0  0  0  0  0  0
   -5.0504    2.5988   -0.4184 S   0  0  0  0  0  0  0  0  0  0  0  0
   -3.7967    2.6856   -1.3527 O   0  0  0  0  0  0  0  0  0  0  0  0
   -6.2067    3.1224   -1.1259 O   0  0  0  0  0  0  0  0  0  0  0  0
   -5.0895    1.2965    0.2423 O   0  0  0  0  0  0  0  0  0  0  0  0
   -4.6976    3.6520    0.7859 O   0  0  0  0  0  0  0  0  0  0  0  0
   -5.0183    4.5226    0.4981 H   0  0  0  0  0  0  0  0  0  0  0  0
  1 11  2  0  0  0  0
  2  1  1  0  0  0  0
  3  2  1  0  0  0  0
  4  5  2  0  0  0  0
  4  1  1  0  0  0  0
  5  6  1  0  0  0  0
  6  7  1  0  0  0  0
  6 10  2  0  0  0  0
  7  9  2  0  0  0  0
  8  7  2  0  0  0  0
 10 14  1  0  0  0  0
 11 10  1  0  0  0  0
 11 15  1  0  0  0  0
 13  5  1  0  0  0  0
 16 19  2  0  0  0  0
 16 20  1  0  0  0  0
 17 12  1  0  0  0  0
 17 16  1  0  0  0  0
 18 16  2  0  0  0  0
 21 20  1  0  0  0  0
M  RAD  3   2   2   3   3   4   2
M  END
