Coordinates from ORCA-job 4-NO2PhN2+~HSO4-_B3LYPG-6-31G_dp-CH-Scan-d09-49-n800
 OpenBabel11261919243D

 21 20  0  0  0  0  0  0  0  0999 V2000
   -1.6280   -0.3808   -0.0966 C   0  0  0  0  0  0  0  0  0  0  0  0
   -2.9693   -0.7908   -0.1553 N   0  0  0  0  0  0  0  0  0  0  0  0
   -4.0461   -1.0724   -0.2289 N   0  0  0  0  0  0  0  0  0  0  0  0
   -1.4245    0.9148   -0.5807 C   0  0  0  0  0  0  0  0  0  0  0  0
   -0.0409    1.2498   -0.4956 C   0  0  0  0  0  0  0  0  0  0  0  0
    0.9035    0.3657    0.0048 C   0  0  0  0  0  0  0  0  0  0  0  0
    2.3296    0.7830    0.0628 N   0  0  0  0  0  0  0  0  0  0  0  0
    2.6107    1.9082   -0.3382 O   0  0  0  0  0  0  0  0  0  0  0  0
    3.1393   -0.0283    0.5107 O   0  0  0  0  0  0  0  0  0  0  0  0
    0.5991   -0.9302    0.4735 C   0  0  0  0  0  0  0  0  0  0  0  0
   -0.7149   -1.3347    0.4275 C   0  0  0  0  0  0  0  0  0  0  0  0
   -3.7321    2.8870   -1.4865 H   0  0  0  0  0  0  0  0  0  0  0  0
    0.3108    2.2222   -0.8267 H   0  0  0  0  0  0  0  0  0  0  0  0
    1.3888   -1.5656    0.8509 H   0  0  0  0  0  0  0  0  0  0  0  0
   -1.0256   -2.3172    0.7703 H   0  0  0  0  0  0  0  0  0  0  0  0
   -5.6379    2.7950   -0.5149 S   0  0  0  0  0  0  0  0  0  0  0  0
   -4.5851    3.3443   -1.6082 O   0  0  0  0  0  0  0  0  0  0  0  0
   -6.9368    3.2555   -0.9549 O   0  0  0  0  0  0  0  0  0  0  0  0
   -5.3390    1.4110   -0.2063 O   0  0  0  0  0  0  0  0  0  0  0  0
   -5.2131    3.6290    0.8153 O   0  0  0  0  0  0  0  0  0  0  0  0
   -5.6351    4.5037    0.7656 H   0  0  0  0  0  0  0  0  0  0  0  0
  1 11  2  0  0  0  0
  2  1  1  0  0  0  0
  3  2  1  0  0  0  0
  4  5  2  0  0  0  0
  4  1  1  0  0  0  0
  5  6  1  0  0  0  0
  6  7  1  0  0  0  0
  6 10  2  0  0  0  0
  7  9  2  0  0  0  0
  8  7  2  0  0  0  0
 10 14  1  0  0  0  0
 11 10  1  0  0  0  0
 11 15  1  0  0  0  0
 13  5  1  0  0  0  0
 16 19  2  0  0  0  0
 16 20  1  0  0  0  0
 17 12  1  0  0  0  0
 17 16  1  0  0  0  0
 18 16  2  0  0  0  0
 21 20  1  0  0  0  0
M  RAD  3   2   2   3   3   4   2
M  END
