Coordinates from ORCA-job 4-NO2PhN2+~HSO4-_B3LYPG-6-31G_dp-CH-Scan-d09-49-n800
 OpenBabel11261919243D

 21 20  0  0  0  0  0  0  0  0999 V2000
   -1.9741   -0.0516   -0.2685 C   0  0  0  0  0  0  0  0  0  0  0  0
   -3.3249   -0.3701   -0.3959 N   0  0  0  0  0  0  0  0  0  0  0  0
   -4.3998   -0.6320   -0.5233 N   0  0  0  0  0  0  0  0  0  0  0  0
   -1.5956    1.2726   -0.5348 C   0  0  0  0  0  0  0  0  0  0  0  0
   -0.2214    1.5180   -0.4120 C   0  0  0  0  0  0  0  0  0  0  0  0
    0.6441    0.4922   -0.0494 C   0  0  0  0  0  0  0  0  0  0  0  0
    2.0956    0.7895    0.0719 N   0  0  0  0  0  0  0  0  0  0  0  0
    2.4560    1.9364   -0.1654 O   0  0  0  0  0  0  0  0  0  0  0  0
    2.8301   -0.1386    0.4006 O   0  0  0  0  0  0  0  0  0  0  0  0
    0.2271   -0.8199    0.2128 C   0  0  0  0  0  0  0  0  0  0  0  0
   -1.1188   -1.1123    0.1012 C   0  0  0  0  0  0  0  0  0  0  0  0
   -2.5552    2.2076   -0.8241 H   0  0  0  0  0  0  0  0  0  0  0  0
    0.1814    2.5077   -0.5918 H   0  0  0  0  0  0  0  0  0  0  0  0
    0.9547   -1.5695    0.4938 H   0  0  0  0  0  0  0  0  0  0  0  0
   -1.5018   -2.1086    0.2925 H   0  0  0  0  0  0  0  0  0  0  0  0
   -4.7725    2.5155   -0.1121 S   0  0  0  0  0  0  0  0  0  0  0  0
   -3.6581    2.9996   -1.0272 O   0  0  0  0  0  0  0  0  0  0  0  0
   -5.7923    1.7282   -0.8355 O   0  0  0  0  0  0  0  0  0  0  0  0
   -4.2221    1.8920    1.1004 O   0  0  0  0  0  0  0  0  0  0  0  0
   -5.5254    3.8913    0.3634 O   0  0  0  0  0  0  0  0  0  0  0  0
   -6.3737    3.9009   -0.1077 H   0  0  0  0  0  0  0  0  0  0  0  0
  1 11  2  0  0  0  0
  2  1  1  0  0  0  0
  3  2  1  0  0  0  0
  4  5  2  0  0  0  0
  4  1  1  0  0  0  0
  5  6  1  0  0  0  0
  6  7  1  0  0  0  0
  6 10  2  0  0  0  0
  7  9  2  0  0  0  0
  8  7  2  0  0  0  0
 10 14  1  0  0  0  0
 11 10  1  0  0  0  0
 11 15  1  0  0  0  0
 12  4  1  0  0  0  0
 13  5  1  0  0  0  0
 16 20  1  0  0  0  0
 16 19  1  0  0  0  0
 17 16  2  0  0  0  0
 18 16  2  0  0  0  0
 21 20  1  0  0  0  0
M  RAD  3   2   2   3   3  19   2
M  END
