Coordinates from ORCA-job 4-NO2PhN2+~HSO4-_B3LYPG-6-31G_dp-CH-Scan-d09-49-n800
 OpenBabel11261919243D

 21 20  0  0  0  0  0  0  0  0999 V2000
   -2.0039    0.0268   -0.3223 C   0  0  0  0  0  0  0  0  0  0  0  0
   -3.3563   -0.2539   -0.5001 N   0  0  0  0  0  0  0  0  0  0  0  0
   -4.4285   -0.4994   -0.7023 N   0  0  0  0  0  0  0  0  0  0  0  0
   -1.5348    1.3096   -0.6399 C   0  0  0  0  0  0  0  0  0  0  0  0
   -0.1671    1.5261   -0.4856 C   0  0  0  0  0  0  0  0  0  0  0  0
    0.6411    0.4910   -0.0227 C   0  0  0  0  0  0  0  0  0  0  0  0
    2.0950    0.7429    0.1428 N   0  0  0  0  0  0  0  0  0  0  0  0
    2.5069    1.8602   -0.1469 O   0  0  0  0  0  0  0  0  0  0  0  0
    2.7793   -0.1893    0.5557 O   0  0  0  0  0  0  0  0  0  0  0  0
    0.1572   -0.7804    0.2969 C   0  0  0  0  0  0  0  0  0  0  0  0
   -1.1967   -1.0288    0.1403 C   0  0  0  0  0  0  0  0  0  0  0  0
   -2.3515    2.1999   -1.0163 H   0  0  0  0  0  0  0  0  0  0  0  0
    0.2736    2.4892   -0.7102 H   0  0  0  0  0  0  0  0  0  0  0  0
    0.8393   -1.5408    0.6534 H   0  0  0  0  0  0  0  0  0  0  0  0
   -1.6239   -1.9983    0.3698 H   0  0  0  0  0  0  0  0  0  0  0  0
   -4.7277    2.5303   -0.2402 S   0  0  0  0  0  0  0  0  0  0  0  0
   -3.8142    3.1009   -1.2653 O   0  0  0  0  0  0  0  0  0  0  0  0
   -5.7184    1.5477   -0.7724 O   0  0  0  0  0  0  0  0  0  0  0  0
   -4.0078    2.0025    0.9426 O   0  0  0  0  0  0  0  0  0  0  0  0
   -5.6098    3.8308    0.2331 O   0  0  0  0  0  0  0  0  0  0  0  0
   -6.3986    3.4820    0.6785 H   0  0  0  0  0  0  0  0  0  0  0  0
  1 11  2  0  0  0  0
  2  1  1  0  0  0  0
  3  2  1  0  0  0  0
  4  5  2  0  0  0  0
  4  1  1  0  0  0  0
  5  6  1  0  0  0  0
  6  7  1  0  0  0  0
  6 10  2  0  0  0  0
  7  9  2  0  0  0  0
  8  7  2  0  0  0  0
 10 14  1  0  0  0  0
 11 10  1  0  0  0  0
 11 15  1  0  0  0  0
 12  4  1  0  0  0  0
 13  5  1  0  0  0  0
 16 20  1  0  0  0  0
 16 19  1  0  0  0  0
 17 16  2  0  0  0  0
 18 16  2  0  0  0  0
 20 21  1  0  0  0  0
M  RAD  3   2   2   3   3  19   2
M  END
