Coordinates from ORCA-job 4-NO2PhN2+~HSO4-_B3LYPG-6-31G_dp-CH-Scan-d09-49-n800
 OpenBabel11261919243D

 21 20  0  0  0  0  0  0  0  0999 V2000
   -1.5673   -0.3930   -0.1155 C   0  0  0  0  0  0  0  0  0  0  0  0
   -2.9162   -0.7806   -0.1903 N   0  0  0  0  0  0  0  0  0  0  0  0
   -3.9983   -1.0363   -0.2839 N   0  0  0  0  0  0  0  0  0  0  0  0
   -1.3407    0.8846   -0.6337 C   0  0  0  0  0  0  0  0  0  0  0  0
    0.0466    1.2031   -0.5294 C   0  0  0  0  0  0  0  0  0  0  0  0
    0.9683    0.3225    0.0172 C   0  0  0  0  0  0  0  0  0  0  0  0
    2.3982    0.7230    0.0947 N   0  0  0  0  0  0  0  0  0  0  0  0
    2.7019    1.8366   -0.3226 O   0  0  0  0  0  0  0  0  0  0  0  0
    3.1884   -0.0864    0.5797 O   0  0  0  0  0  0  0  0  0  0  0  0
    0.6374   -0.9560    0.5166 C   0  0  0  0  0  0  0  0  0  0  0  0
   -0.6805   -1.3451    0.4547 C   0  0  0  0  0  0  0  0  0  0  0  0
   -3.9402    3.0817   -1.6368 H   0  0  0  0  0  0  0  0  0  0  0  0
    0.4190    2.1605   -0.8818 H   0  0  0  0  0  0  0  0  0  0  0  0
    1.4111   -1.5899    0.9280 H   0  0  0  0  0  0  0  0  0  0  0  0
   -1.0117   -2.3134    0.8182 H   0  0  0  0  0  0  0  0  0  0  0  0
   -5.7389    2.8271   -0.5014 S   0  0  0  0  0  0  0  0  0  0  0  0
   -4.8308    3.4738   -1.6735 O   0  0  0  0  0  0  0  0  0  0  0  0
   -7.1000    3.2064   -0.8100 O   0  0  0  0  0  0  0  0  0  0  0  0
   -5.3161    1.4628   -0.2639 O   0  0  0  0  0  0  0  0  0  0  0  0
   -5.2475    3.6614    0.8045 O   0  0  0  0  0  0  0  0  0  0  0  0
   -5.7294    4.5061    0.8181 H   0  0  0  0  0  0  0  0  0  0  0  0
  1 11  2  0  0  0  0
  2  1  1  0  0  0  0
  3  2  1  0  0  0  0
  4  5  2  0  0  0  0
  4  1  1  0  0  0  0
  5  6  1  0  0  0  0
  6  7  1  0  0  0  0
  6 10  2  0  0  0  0
  7  9  2  0  0  0  0
  8  7  2  0  0  0  0
 10 14  1  0  0  0  0
 11 10  1  0  0  0  0
 11 15  1  0  0  0  0
 13  5  1  0  0  0  0
 16 19  2  0  0  0  0
 16 20  1  0  0  0  0
 17 12  1  0  0  0  0
 17 16  1  0  0  0  0
 18 16  2  0  0  0  0
 20 21  1  0  0  0  0
M  RAD  3   2   2   3   3   4   2
M  END
