Coordinates from ORCA-job 4-NO2PhN2+~HSO4-_B3LYPG-6-31G_dp-CH-Scan-d09-49-n800
 OpenBabel11261919243D

 21 20  0  0  0  0  0  0  0  0999 V2000
   -1.6645   -0.3764   -0.1021 C   0  0  0  0  0  0  0  0  0  0  0  0
   -2.9998   -0.8015   -0.1617 N   0  0  0  0  0  0  0  0  0  0  0  0
   -4.0726   -1.0981   -0.2332 N   0  0  0  0  0  0  0  0  0  0  0  0
   -1.4712    0.9254   -0.5759 C   0  0  0  0  0  0  0  0  0  0  0  0
   -0.0915    1.2727   -0.4903 C   0  0  0  0  0  0  0  0  0  0  0  0
    0.8619    0.3932    0.0011 C   0  0  0  0  0  0  0  0  0  0  0  0
    2.2843    0.8230    0.0593 N   0  0  0  0  0  0  0  0  0  0  0  0
    2.5542    1.9530   -0.3356 O   0  0  0  0  0  0  0  0  0  0  0  0
    3.1016    0.0164    0.5014 O   0  0  0  0  0  0  0  0  0  0  0  0
    0.5700   -0.9087    0.4600 C   0  0  0  0  0  0  0  0  0  0  0  0
   -0.7405   -1.3247    0.4127 C   0  0  0  0  0  0  0  0  0  0  0  0
   -3.6412    2.7756   -1.4328 H   0  0  0  0  0  0  0  0  0  0  0  0
    0.2503    2.2510   -0.8140 H   0  0  0  0  0  0  0  0  0  0  0  0
    1.3658   -1.5399    0.8313 H   0  0  0  0  0  0  0  0  0  0  0  0
   -1.0414   -2.3125    0.7486 H   0  0  0  0  0  0  0  0  0  0  0  0
   -5.5722    2.7720   -0.5082 S   0  0  0  0  0  0  0  0  0  0  0  0
   -4.4759    3.2608   -1.5836 O   0  0  0  0  0  0  0  0  0  0  0  0
   -6.8433    3.2727   -0.9846 O   0  0  0  0  0  0  0  0  0  0  0  0
   -5.3359    1.3830   -0.1679 O   0  0  0  0  0  0  0  0  0  0  0  0
   -5.1478    3.6120    0.8192 O   0  0  0  0  0  0  0  0  0  0  0  0
   -5.5370    4.5001    0.7452 H   0  0  0  0  0  0  0  0  0  0  0  0
  1 11  2  0  0  0  0
  2  1  1  0  0  0  0
  3  2  1  0  0  0  0
  4  5  2  0  0  0  0
  4  1  1  0  0  0  0
  5  6  1  0  0  0  0
  6  7  1  0  0  0  0
  6 10  2  0  0  0  0
  7  9  2  0  0  0  0
  8  7  2  0  0  0  0
 10 14  1  0  0  0  0
 11 10  1  0  0  0  0
 11 15  1  0  0  0  0
 13  5  1  0  0  0  0
 16 19  2  0  0  0  0
 16 20  1  0  0  0  0
 17 12  1  0  0  0  0
 17 16  1  0  0  0  0
 18 16  2  0  0  0  0
 21 20  1  0  0  0  0
M  RAD  3   2   2   3   3   4   2
M  END
