Coordinates from ORCA-job 4-NO2PhN2+~HSO4-_B3LYPG-6-31G_dp-CH-Scan-d09-49-n800
 OpenBabel11261919243D

 21 20  0  0  0  0  0  0  0  0999 V2000
   -1.7992   -0.3645   -0.1319 C   0  0  0  0  0  0  0  0  0  0  0  0
   -3.1127   -0.8421   -0.1989 N   0  0  0  0  0  0  0  0  0  0  0  0
   -4.1705   -1.1854   -0.2695 N   0  0  0  0  0  0  0  0  0  0  0  0
   -1.6438    0.9597   -0.5612 C   0  0  0  0  0  0  0  0  0  0  0  0
   -0.2815    1.3561   -0.4680 C   0  0  0  0  0  0  0  0  0  0  0  0
    0.7046    0.4952   -0.0082 C   0  0  0  0  0  0  0  0  0  0  0  0
    2.1105    0.9749    0.0608 N   0  0  0  0  0  0  0  0  0  0  0  0
    2.3363    2.1254   -0.2997 O   0  0  0  0  0  0  0  0  0  0  0  0
    2.9564    0.1844    0.4762 O   0  0  0  0  0  0  0  0  0  0  0  0
    0.4600   -0.8290    0.4068 C   0  0  0  0  0  0  0  0  0  0  0  0
   -0.8355   -1.2901    0.3480 C   0  0  0  0  0  0  0  0  0  0  0  0
   -3.3410    2.3555   -1.2464 H   0  0  0  0  0  0  0  0  0  0  0  0
    0.0205    2.3566   -0.7600 H   0  0  0  0  0  0  0  0  0  0  0  0
    1.2782   -1.4443    0.7558 H   0  0  0  0  0  0  0  0  0  0  0  0
   -1.0988   -2.2983    0.6521 H   0  0  0  0  0  0  0  0  0  0  0  0
   -5.3152    2.6852   -0.4716 S   0  0  0  0  0  0  0  0  0  0  0  0
   -4.1148    2.9262   -1.4972 O   0  0  0  0  0  0  0  0  0  0  0  0
   -6.4913    3.2906   -1.0619 O   0  0  0  0  0  0  0  0  0  0  0  0
   -5.2908    1.3135    0.0063 O   0  0  0  0  0  0  0  0  0  0  0  0
   -4.8694    3.5822    0.8150 O   0  0  0  0  0  0  0  0  0  0  0  0
   -5.1487    4.4974    0.6423 H   0  0  0  0  0  0  0  0  0  0  0  0
  1 11  2  0  0  0  0
  2  1  1  0  0  0  0
  3  2  1  0  0  0  0
  4  5  2  0  0  0  0
  4  1  1  0  0  0  0
  5  6  1  0  0  0  0
  6  7  1  0  0  0  0
  6 10  2  0  0  0  0
  7  9  2  0  0  0  0
  8  7  2  0  0  0  0
 10 14  1  0  0  0  0
 11 10  1  0  0  0  0
 11 15  1  0  0  0  0
 13  5  1  0  0  0  0
 16 19  2  0  0  0  0
 16 20  1  0  0  0  0
 17 12  1  0  0  0  0
 17 16  1  0  0  0  0
 18 16  2  0  0  0  0
 21 20  1  0  0  0  0
M  RAD  3   2   2   3   3   4   2
M  END
