Coordinates from ORCA-job 4-NO2PhN2+~HSO4-_B3LYPG-6-31G_dp-CH-Scan-d09-49-n800
 OpenBabel11261919243D

 21 20  0  0  0  0  0  0  0  0999 V2000
   -1.6224   -0.3816   -0.0964 C   0  0  0  0  0  0  0  0  0  0  0  0
   -2.9645   -0.7893   -0.1553 N   0  0  0  0  0  0  0  0  0  0  0  0
   -4.0421   -1.0679   -0.2286 N   0  0  0  0  0  0  0  0  0  0  0  0
   -1.4172    0.9131   -0.5823 C   0  0  0  0  0  0  0  0  0  0  0  0
   -0.0331    1.2462   -0.4967 C   0  0  0  0  0  0  0  0  0  0  0  0
    0.9098    0.3615    0.0055 C   0  0  0  0  0  0  0  0  0  0  0  0
    2.3364    0.7769    0.0640 N   0  0  0  0  0  0  0  0  0  0  0  0
    2.6192    1.9015   -0.3378 O   0  0  0  0  0  0  0  0  0  0  0  0
    3.1448   -0.0349    0.5130 O   0  0  0  0  0  0  0  0  0  0  0  0
    0.6034   -0.9335    0.4758 C   0  0  0  0  0  0  0  0  0  0  0  0
   -0.7111   -1.3363    0.4295 C   0  0  0  0  0  0  0  0  0  0  0  0
   -3.7472    2.9038   -1.4959 H   0  0  0  0  0  0  0  0  0  0  0  0
    0.3202    2.2176   -0.8289 H   0  0  0  0  0  0  0  0  0  0  0  0
    1.3920   -1.5693    0.8545 H   0  0  0  0  0  0  0  0  0  0  0  0
   -1.0234   -2.3178    0.7734 H   0  0  0  0  0  0  0  0  0  0  0  0
   -5.6479    2.7983   -0.5155 S   0  0  0  0  0  0  0  0  0  0  0  0
   -4.6031    3.3565   -1.6125 O   0  0  0  0  0  0  0  0  0  0  0  0
   -6.9513    3.2522   -0.9485 O   0  0  0  0  0  0  0  0  0  0  0  0
   -5.3387    1.4156   -0.2119 O   0  0  0  0  0  0  0  0  0  0  0  0
   -5.2216    3.6320    0.8145 O   0  0  0  0  0  0  0  0  0  0  0  0
   -5.6490    4.5044    0.7688 H   0  0  0  0  0  0  0  0  0  0  0  0
  1 11  2  0  0  0  0
  2  1  1  0  0  0  0
  3  2  1  0  0  0  0
  4  5  2  0  0  0  0
  4  1  1  0  0  0  0
  5  6  1  0  0  0  0
  6  7  1  0  0  0  0
  6 10  2  0  0  0  0
  7  9  2  0  0  0  0
  8  7  2  0  0  0  0
 10 14  1  0  0  0  0
 11 10  1  0  0  0  0
 11 15  1  0  0  0  0
 13  5  1  0  0  0  0
 16 19  2  0  0  0  0
 16 20  1  0  0  0  0
 17 12  1  0  0  0  0
 17 16  1  0  0  0  0
 18 16  2  0  0  0  0
 21 20  1  0  0  0  0
M  RAD  3   2   2   3   3   4   2
M  END
