Coordinates from ORCA-job 4-NO2PhN2+~HSO4-_B3LYPG-6-31G_dp-CH-Scan-d09-49-n800
 OpenBabel11261919243D

 21 20  0  0  0  0  0  0  0  0999 V2000
   -1.6049   -0.3837   -0.0960 C   0  0  0  0  0  0  0  0  0  0  0  0
   -2.9497   -0.7840   -0.1558 N   0  0  0  0  0  0  0  0  0  0  0  0
   -4.0292   -1.0554   -0.2313 N   0  0  0  0  0  0  0  0  0  0  0  0
   -1.3942    0.9077   -0.5875 C   0  0  0  0  0  0  0  0  0  0  0  0
   -0.0085    1.2350   -0.5006 C   0  0  0  0  0  0  0  0  0  0  0  0
    0.9294    0.3487    0.0080 C   0  0  0  0  0  0  0  0  0  0  0  0
    2.3577    0.7582    0.0681 N   0  0  0  0  0  0  0  0  0  0  0  0
    2.6462    1.8804   -0.3363 O   0  0  0  0  0  0  0  0  0  0  0  0
    3.1619   -0.0557    0.5212 O   0  0  0  0  0  0  0  0  0  0  0  0
    0.6166   -0.9431    0.4833 C   0  0  0  0  0  0  0  0  0  0  0  0
   -0.6996   -1.3405    0.4360 C   0  0  0  0  0  0  0  0  0  0  0  0
   -3.7960    2.9557   -1.5259 H   0  0  0  0  0  0  0  0  0  0  0  0
    0.3499    2.2034   -0.8366 H   0  0  0  0  0  0  0  0  0  0  0  0
    1.4017   -1.5806    0.8663 H   0  0  0  0  0  0  0  0  0  0  0  0
   -1.0169   -2.3192    0.7834 H   0  0  0  0  0  0  0  0  0  0  0  0
   -5.6787    2.8086   -0.5164 S   0  0  0  0  0  0  0  0  0  0  0  0
   -4.6611    3.3934   -1.6265 O   0  0  0  0  0  0  0  0  0  0  0  0
   -6.9963    3.2415   -0.9270 O   0  0  0  0  0  0  0  0  0  0  0  0
   -5.3385    1.4302   -0.2276 O   0  0  0  0  0  0  0  0  0  0  0  0
   -5.2465    3.6418    0.8117 O   0  0  0  0  0  0  0  0  0  0  0  0
   -5.6900    4.5067    0.7784 H   0  0  0  0  0  0  0  0  0  0  0  0
  1 11  2  0  0  0  0
  2  1  1  0  0  0  0
  3  2  1  0  0  0  0
  4  5  2  0  0  0  0
  4  1  1  0  0  0  0
  5  6  1  0  0  0  0
  6  7  1  0  0  0  0
  6 10  2  0  0  0  0
  7  9  2  0  0  0  0
  8  7  2  0  0  0  0
 10 14  1  0  0  0  0
 11 10  1  0  0  0  0
 11 15  1  0  0  0  0
 13  5  1  0  0  0  0
 16 19  2  0  0  0  0
 16 20  1  0  0  0  0
 17 12  1  0  0  0  0
 17 16  1  0  0  0  0
 18 16  2  0  0  0  0
 21 20  1  0  0  0  0
M  RAD  3   2   2   3   3   4   2
M  END
