Coordinates from ORCA-job 4-NO2PhN2+~HSO4-_B3LYPG-6-31G_dp-CH-Scan-d09-49-n800
 OpenBabel11261919243D

 21 20  0  0  0  0  0  0  0  0999 V2000
   -1.9333   -0.3225   -0.1784 C   0  0  0  0  0  0  0  0  0  0  0  0
   -3.2344   -0.8189   -0.2607 N   0  0  0  0  0  0  0  0  0  0  0  0
   -4.2845   -1.1793   -0.3356 N   0  0  0  0  0  0  0  0  0  0  0  0
   -1.7669    1.0202   -0.5454 C   0  0  0  0  0  0  0  0  0  0  0  0
   -0.4214    1.4378   -0.4458 C   0  0  0  0  0  0  0  0  0  0  0  0
    0.5758    0.5669   -0.0280 C   0  0  0  0  0  0  0  0  0  0  0  0
    1.9761    1.0602    0.0549 N   0  0  0  0  0  0  0  0  0  0  0  0
    2.1830    2.2263   -0.2615 O   0  0  0  0  0  0  0  0  0  0  0  0
    2.8301    0.2618    0.4340 O   0  0  0  0  0  0  0  0  0  0  0  0
    0.3432   -0.7726    0.3274 C   0  0  0  0  0  0  0  0  0  0  0  0
   -0.9497   -1.2456    0.2529 C   0  0  0  0  0  0  0  0  0  0  0  0
   -2.9147    1.9689   -0.9602 H   0  0  0  0  0  0  0  0  0  0  0  0
   -0.1451    2.4561   -0.6963 H   0  0  0  0  0  0  0  0  0  0  0  0
    1.1673   -1.3963    0.6469 H   0  0  0  0  0  0  0  0  0  0  0  0
   -1.1991   -2.2685    0.5147 H   0  0  0  0  0  0  0  0  0  0  0  0
   -5.0072    2.5831   -0.3960 S   0  0  0  0  0  0  0  0  0  0  0  0
   -3.7379    2.6882   -1.2846 O   0  0  0  0  0  0  0  0  0  0  0  0
   -6.1867    2.9723   -1.1557 O   0  0  0  0  0  0  0  0  0  0  0  0
   -4.9876    1.3249    0.3542 O   0  0  0  0  0  0  0  0  0  0  0  0
   -4.7747    3.7365    0.7482 O   0  0  0  0  0  0  0  0  0  0  0  0
   -5.1788    4.5495    0.4038 H   0  0  0  0  0  0  0  0  0  0  0  0
  1 11  2  0  0  0  0
  2  1  1  0  0  0  0
  3  2  1  0  0  0  0
  4  5  2  0  0  0  0
  4  1  1  0  0  0  0
  5  6  1  0  0  0  0
  6  7  1  0  0  0  0
  6 10  2  0  0  0  0
  7  9  2  0  0  0  0
  8  7  2  0  0  0  0
 10 14  1  0  0  0  0
 11 10  1  0  0  0  0
 11 15  1  0  0  0  0
 13  5  1  0  0  0  0
 16 19  2  0  0  0  0
 16 20  1  0  0  0  0
 17 12  1  0  0  0  0
 17 16  1  0  0  0  0
 18 16  2  0  0  0  0
 21 20  1  0  0  0  0
M  RAD  3   2   2   3   3   4   2
M  END
