Coordinates from ORCA-job 4-NO2PhN2+~HSO4-_B3LYPG-6-31G_dp-CH-Scan-d09-49-n800
 OpenBabel11261919243D

 21 20  0  0  0  0  0  0  0  0999 V2000
   -1.6861   -0.3739   -0.1050 C   0  0  0  0  0  0  0  0  0  0  0  0
   -3.0180   -0.8078   -0.1646 N   0  0  0  0  0  0  0  0  0  0  0  0
   -4.0884   -1.1124   -0.2351 N   0  0  0  0  0  0  0  0  0  0  0  0
   -1.4993    0.9321   -0.5708 C   0  0  0  0  0  0  0  0  0  0  0  0
   -0.1220    1.2870   -0.4852 C   0  0  0  0  0  0  0  0  0  0  0  0
    0.8371    0.4097   -0.0009 C   0  0  0  0  0  0  0  0  0  0  0  0
    2.2572    0.8472    0.0575 N   0  0  0  0  0  0  0  0  0  0  0  0
    2.5200    1.9806   -0.3322 O   0  0  0  0  0  0  0  0  0  0  0  0
    3.0794    0.0425    0.4939 O   0  0  0  0  0  0  0  0  0  0  0  0
    0.5531   -0.8963    0.4503 C   0  0  0  0  0  0  0  0  0  0  0  0
   -0.7552   -1.3194    0.4025 C   0  0  0  0  0  0  0  0  0  0  0  0
   -3.5881    2.7054   -1.3989 H   0  0  0  0  0  0  0  0  0  0  0  0
    0.2134    2.2692   -0.8034 H   0  0  0  0  0  0  0  0  0  0  0  0
    1.3528   -1.5255    0.8167 H   0  0  0  0  0  0  0  0  0  0  0  0
   -1.0499   -2.3108    0.7329 H   0  0  0  0  0  0  0  0  0  0  0  0
   -5.5328    2.7586   -0.5041 S   0  0  0  0  0  0  0  0  0  0  0  0
   -4.4112    3.2071   -1.5682 O   0  0  0  0  0  0  0  0  0  0  0  0
   -6.7860    3.2817   -1.0040 O   0  0  0  0  0  0  0  0  0  0  0  0
   -5.3353    1.3687   -0.1420 O   0  0  0  0  0  0  0  0  0  0  0  0
   -5.1090    3.6051    0.8198 O   0  0  0  0  0  0  0  0  0  0  0  0
   -5.4782    4.5002    0.7294 H   0  0  0  0  0  0  0  0  0  0  0  0
  1 11  2  0  0  0  0
  2  1  1  0  0  0  0
  3  2  1  0  0  0  0
  4  5  2  0  0  0  0
  4  1  1  0  0  0  0
  5  6  1  0  0  0  0
  6  7  1  0  0  0  0
  6 10  2  0  0  0  0
  7  9  2  0  0  0  0
  8  7  2  0  0  0  0
 10 14  1  0  0  0  0
 11 10  1  0  0  0  0
 11 15  1  0  0  0  0
 13  5  1  0  0  0  0
 16 19  2  0  0  0  0
 16 20  1  0  0  0  0
 17 12  1  0  0  0  0
 17 16  1  0  0  0  0
 18 16  2  0  0  0  0
 21 20  1  0  0  0  0
M  RAD  3   2   2   3   3   4   2
M  END
