Coordinates from ORCA-job 4-NO2PhN2+~HSO4-_B3LYPG-6-31G_dp-CH-Scan-d09-49-n800
 OpenBabel11261919243D

 21 20  0  0  0  0  0  0  0  0999 V2000
   -1.6086   -0.3834   -0.0961 C   0  0  0  0  0  0  0  0  0  0  0  0
   -2.9528   -0.7853   -0.1558 N   0  0  0  0  0  0  0  0  0  0  0  0
   -4.0320   -1.0578   -0.2302 N   0  0  0  0  0  0  0  0  0  0  0  0
   -1.3992    0.9087   -0.5866 C   0  0  0  0  0  0  0  0  0  0  0  0
   -0.0139    1.2372   -0.4998 C   0  0  0  0  0  0  0  0  0  0  0  0
    0.9252    0.3514    0.0075 C   0  0  0  0  0  0  0  0  0  0  0  0
    2.3531    0.7623    0.0673 N   0  0  0  0  0  0  0  0  0  0  0  0
    2.6403    1.8850   -0.3366 O   0  0  0  0  0  0  0  0  0  0  0  0
    3.1582   -0.0511    0.5195 O   0  0  0  0  0  0  0  0  0  0  0  0
    0.6138   -0.9411    0.4818 C   0  0  0  0  0  0  0  0  0  0  0  0
   -0.7020   -1.3397    0.4347 C   0  0  0  0  0  0  0  0  0  0  0  0
   -3.7855    2.9451   -1.5198 H   0  0  0  0  0  0  0  0  0  0  0  0
    0.3435    2.2062   -0.8351 H   0  0  0  0  0  0  0  0  0  0  0  0
    1.3998   -1.5781    0.8640 H   0  0  0  0  0  0  0  0  0  0  0  0
   -1.0182   -2.3191    0.7814 H   0  0  0  0  0  0  0  0  0  0  0  0
   -5.6720    2.8064   -0.5163 S   0  0  0  0  0  0  0  0  0  0  0  0
   -4.6488    3.3859   -1.6237 O   0  0  0  0  0  0  0  0  0  0  0  0
   -6.9869    3.2437   -0.9313 O   0  0  0  0  0  0  0  0  0  0  0  0
   -5.3380    1.4272   -0.2249 O   0  0  0  0  0  0  0  0  0  0  0  0
   -5.2412    3.6396    0.8123 O   0  0  0  0  0  0  0  0  0  0  0  0
   -5.6815    4.5060    0.7767 H   0  0  0  0  0  0  0  0  0  0  0  0
  1 11  2  0  0  0  0
  2  1  1  0  0  0  0
  3  2  1  0  0  0  0
  4  5  2  0  0  0  0
  4  1  1  0  0  0  0
  5  6  1  0  0  0  0
  6  7  1  0  0  0  0
  6 10  2  0  0  0  0
  7  9  2  0  0  0  0
  8  7  2  0  0  0  0
 10 14  1  0  0  0  0
 11 10  1  0  0  0  0
 11 15  1  0  0  0  0
 13  5  1  0  0  0  0
 16 19  2  0  0  0  0
 16 20  1  0  0  0  0
 17 12  1  0  0  0  0
 17 16  1  0  0  0  0
 18 16  2  0  0  0  0
 21 20  1  0  0  0  0
M  RAD  3   2   2   3   3   4   2
M  END
