Coordinates from ORCA-job 4-NO2PhN2+~HSO4-_B3LYPG-6-31G_dp-CH-Scan-d09-49-n800
 OpenBabel11261919243D

 21 20  0  0  0  0  0  0  0  0999 V2000
   -1.6401   -0.5128   -1.0479 C   0  0  0  0  0  0  0  0  0  0  0  0
   -2.8398   -1.1247   -1.4651 N   0  0  0  0  0  0  0  0  0  0  0  0
   -3.7419   -1.6351   -1.8773 N   0  0  0  0  0  0  0  0  0  0  0  0
   -0.6319   -0.6564   -1.9984 C   0  0  0  0  0  0  0  0  0  0  0  0
    0.5500    0.0102   -1.5444 C   0  0  0  0  0  0  0  0  0  0  0  0
    0.5906    0.7011   -0.3438 C   0  0  0  0  0  0  0  0  0  0  0  0
    1.8377    1.4077    0.0506 N   0  0  0  0  0  0  0  0  0  0  0  0
    2.7967    1.3424   -0.7115 O   0  0  0  0  0  0  0  0  0  0  0  0
    1.8291    2.0166    1.1213 O   0  0  0  0  0  0  0  0  0  0  0  0
   -0.4925    0.7700    0.5642 C   0  0  0  0  0  0  0  0  0  0  0  0
   -1.6631    0.1322    0.2183 C   0  0  0  0  0  0  0  0  0  0  0  0
   -2.9087    2.7868    0.0418 H   0  0  0  0  0  0  0  0  0  0  0  0
    1.4545   -0.0051   -2.1464 H   0  0  0  0  0  0  0  0  0  0  0  0
   -0.3684    1.2910    1.5044 H   0  0  0  0  0  0  0  0  0  0  0  0
   -2.5290    0.1082    0.8723 H   0  0  0  0  0  0  0  0  0  0  0  0
   -4.9866    2.2857    0.2287 S   0  0  0  0  0  0  0  0  0  0  0  0
   -3.7338    3.3022    0.1001 O   0  0  0  0  0  0  0  0  0  0  0  0
   -6.1668    3.0758   -0.0316 O   0  0  0  0  0  0  0  0  0  0  0  0
   -4.6679    1.0505   -0.4618 O   0  0  0  0  0  0  0  0  0  0  0  0
   -4.9391    1.9016    1.8080 O   0  0  0  0  0  0  0  0  0  0  0  0
   -5.3957    2.6012    2.3072 H   0  0  0  0  0  0  0  0  0  0  0  0
  1 11  2  0  0  0  0
  2  1  1  0  0  0  0
  3  2  1  0  0  0  0
  4  5  2  0  0  0  0
  4  1  1  0  0  0  0
  5  6  1  0  0  0  0
  6  7  1  0  0  0  0
  6 10  2  0  0  0  0
  7  9  2  0  0  0  0
  8  7  2  0  0  0  0
 10 14  1  0  0  0  0
 11 10  1  0  0  0  0
 11 15  1  0  0  0  0
 12 17  1  0  0  0  0
 13  5  1  0  0  0  0
 16 20  1  0  0  0  0
 17 16  1  0  0  0  0
 18 16  2  0  0  0  0
 19 16  2  0  0  0  0
 20 21  1  0  0  0  0
M  RAD  3   2   2   3   3   4   2
M  END
