Coordinates from ORCA-job 4-NO2PhN2+~HSO4-_B3LYPG-6-31G_dp-CH-Scan-d09-49-n800
 OpenBabel11261919243D

 21 20  0  0  0  0  0  0  0  0999 V2000
   -1.8963   -0.3524   -0.1635 C   0  0  0  0  0  0  0  0  0  0  0  0
   -3.1945   -0.8629   -0.2408 N   0  0  0  0  0  0  0  0  0  0  0  0
   -4.2418   -1.2334   -0.3172 N   0  0  0  0  0  0  0  0  0  0  0  0
   -1.7570    0.9819   -0.5705 C   0  0  0  0  0  0  0  0  0  0  0  0
   -0.4083    1.4081   -0.4690 C   0  0  0  0  0  0  0  0  0  0  0  0
    0.5945    0.5614   -0.0181 C   0  0  0  0  0  0  0  0  0  0  0  0
    1.9892    1.0708    0.0622 N   0  0  0  0  0  0  0  0  0  0  0  0
    2.1897    2.2298   -0.2848 O   0  0  0  0  0  0  0  0  0  0  0  0
    2.8490    0.2932    0.4721 O   0  0  0  0  0  0  0  0  0  0  0  0
    0.3750   -0.7716    0.3759 C   0  0  0  0  0  0  0  0  0  0  0  0
   -0.9111   -1.2589    0.3048 C   0  0  0  0  0  0  0  0  0  0  0  0
   -3.1065    2.0831   -1.1023 H   0  0  0  0  0  0  0  0  0  0  0  0
   -0.1317    2.4198   -0.7461 H   0  0  0  0  0  0  0  0  0  0  0  0
    1.2038   -1.3757    0.7197 H   0  0  0  0  0  0  0  0  0  0  0  0
   -1.1537   -2.2765    0.5934 H   0  0  0  0  0  0  0  0  0  0  0  0
   -5.1099    2.6190   -0.4393 S   0  0  0  0  0  0  0  0  0  0  0  0
   -3.8691    2.7234   -1.4069 O   0  0  0  0  0  0  0  0  0  0  0  0
   -6.2508    3.2232   -1.1022 O   0  0  0  0  0  0  0  0  0  0  0  0
   -5.1753    1.2852    0.1451 O   0  0  0  0  0  0  0  0  0  0  0  0
   -4.6887    3.5890    0.8088 O   0  0  0  0  0  0  0  0  0  0  0  0
   -4.9531    4.4924    0.5674 H   0  0  0  0  0  0  0  0  0  0  0  0
  1 11  2  0  0  0  0
  2  1  1  0  0  0  0
  3  2  1  0  0  0  0
  4  5  2  0  0  0  0
  4  1  1  0  0  0  0
  5  6  1  0  0  0  0
  6  7  1  0  0  0  0
  6 10  2  0  0  0  0
  7  9  2  0  0  0  0
  8  7  2  0  0  0  0
 10 14  1  0  0  0  0
 11 10  1  0  0  0  0
 11 15  1  0  0  0  0
 13  5  1  0  0  0  0
 16 19  2  0  0  0  0
 16 20  1  0  0  0  0
 17 12  1  0  0  0  0
 17 16  1  0  0  0  0
 18 16  2  0  0  0  0
 21 20  1  0  0  0  0
M  RAD  3   2   2   3   3   4   2
M  END
