Coordinates from ORCA-job 4-NO2PhN2+~HSO4-_B3LYPG-6-31G_dp-CH-Scan-d09-49-n800
 OpenBabel11261919243D

 21 20  0  0  0  0  0  0  0  0999 V2000
   -1.6175   -0.4658   -1.0583 C   0  0  0  0  0  0  0  0  0  0  0  0
   -2.8223   -1.0616   -1.4858 N   0  0  0  0  0  0  0  0  0  0  0  0
   -3.7279   -1.5576   -1.9083 N   0  0  0  0  0  0  0  0  0  0  0  0
   -0.6192   -0.5862   -2.0226 C   0  0  0  0  0  0  0  0  0  0  0  0
    0.5778    0.0362   -1.5496 C   0  0  0  0  0  0  0  0  0  0  0  0
    0.6474    0.6479   -0.3071 C   0  0  0  0  0  0  0  0  0  0  0  0
    1.9190    1.2894    0.1192 N   0  0  0  0  0  0  0  0  0  0  0  0
    2.8874    1.1910   -0.6276 O   0  0  0  0  0  0  0  0  0  0  0  0
    1.9198    1.8853    1.1973 O   0  0  0  0  0  0  0  0  0  0  0  0
   -0.4314    0.7082    0.6050 C   0  0  0  0  0  0  0  0  0  0  0  0
   -1.6228    0.1280    0.2317 C   0  0  0  0  0  0  0  0  0  0  0  0
   -3.2041    3.0708   -0.3235 H   0  0  0  0  0  0  0  0  0  0  0  0
    1.4732    0.0453   -2.1651 H   0  0  0  0  0  0  0  0  0  0  0  0
   -0.2960    1.1914    1.5633 H   0  0  0  0  0  0  0  0  0  0  0  0
   -2.4951    0.1228    0.8771 H   0  0  0  0  0  0  0  0  0  0  0  0
   -5.0964    2.2494    0.2569 S   0  0  0  0  0  0  0  0  0  0  0  0
   -4.0823    3.4484   -0.1394 O   0  0  0  0  0  0  0  0  0  0  0  0
   -6.4255    2.8047    0.1589 O   0  0  0  0  0  0  0  0  0  0  0  0
   -4.6716    1.0344   -0.4118 O   0  0  0  0  0  0  0  0  0  0  0  0
   -4.7326    2.0100    1.8228 O   0  0  0  0  0  0  0  0  0  0  0  0
   -5.2267    2.6572    2.3557 H   0  0  0  0  0  0  0  0  0  0  0  0
  1 11  2  0  0  0  0
  2  1  1  0  0  0  0
  3  2  1  0  0  0  0
  4  5  2  0  0  0  0
  4  1  1  0  0  0  0
  5  6  1  0  0  0  0
  6  7  1  0  0  0  0
  6 10  2  0  0  0  0
  7  9  2  0  0  0  0
  8  7  2  0  0  0  0
 10 14  1  0  0  0  0
 11 10  1  0  0  0  0
 11 15  1  0  0  0  0
 12 17  1  0  0  0  0
 13  5  1  0  0  0  0
 16 20  1  0  0  0  0
 17 16  1  0  0  0  0
 18 16  2  0  0  0  0
 19 16  2  0  0  0  0
 20 21  1  0  0  0  0
M  RAD  3   2   2   3   3   4   2
M  END
