Coordinates from ORCA-job 4-NO2PhN2+~HSO4-_B3LYPG-6-31G_dp-CH-Scan-d09-49-n800
 OpenBabel11261919243D

 21 20  0  0  0  0  0  0  0  0999 V2000
   -1.6375   -0.3802   -0.0984 C   0  0  0  0  0  0  0  0  0  0  0  0
   -2.9771   -0.7945   -0.1576 N   0  0  0  0  0  0  0  0  0  0  0  0
   -4.0532   -1.0799   -0.2288 N   0  0  0  0  0  0  0  0  0  0  0  0
   -1.4370    0.9172   -0.5798 C   0  0  0  0  0  0  0  0  0  0  0  0
   -0.0545    1.2556   -0.4945 C   0  0  0  0  0  0  0  0  0  0  0  0
    0.8924    0.3729    0.0036 C   0  0  0  0  0  0  0  0  0  0  0  0
    2.3175    0.7937    0.0617 N   0  0  0  0  0  0  0  0  0  0  0  0
    2.5953    1.9207   -0.3365 O   0  0  0  0  0  0  0  0  0  0  0  0
    3.1291   -0.0157    0.5094 O   0  0  0  0  0  0  0  0  0  0  0  0
    0.5915   -0.9247    0.4698 C   0  0  0  0  0  0  0  0  0  0  0  0
   -0.7215   -1.3325    0.4234 C   0  0  0  0  0  0  0  0  0  0  0  0
   -3.7079    2.8578   -1.4729 H   0  0  0  0  0  0  0  0  0  0  0  0
    0.2945    2.2296   -0.8238 H   0  0  0  0  0  0  0  0  0  0  0  0
    1.3829   -1.5588    0.8457 H   0  0  0  0  0  0  0  0  0  0  0  0
   -1.0294   -2.3164    0.7643 H   0  0  0  0  0  0  0  0  0  0  0  0
   -5.6207    2.7892   -0.5130 S   0  0  0  0  0  0  0  0  0  0  0  0
   -4.5564    3.3226   -1.6021 O   0  0  0  0  0  0  0  0  0  0  0  0
   -6.9126    3.2606   -0.9621 O   0  0  0  0  0  0  0  0  0  0  0  0
   -5.3380    1.4037   -0.1961 O   0  0  0  0  0  0  0  0  0  0  0  0
   -5.1954    3.6248    0.8163 O   0  0  0  0  0  0  0  0  0  0  0  0
   -5.6086    4.5034    0.7602 H   0  0  0  0  0  0  0  0  0  0  0  0
  1 11  2  0  0  0  0
  2  1  1  0  0  0  0
  3  2  1  0  0  0  0
  4  5  2  0  0  0  0
  4  1  1  0  0  0  0
  5  6  1  0  0  0  0
  6  7  1  0  0  0  0
  6 10  2  0  0  0  0
  7  9  2  0  0  0  0
  8  7  2  0  0  0  0
 10 14  1  0  0  0  0
 11 10  1  0  0  0  0
 11 15  1  0  0  0  0
 13  5  1  0  0  0  0
 16 19  2  0  0  0  0
 16 20  1  0  0  0  0
 17 12  1  0  0  0  0
 17 16  1  0  0  0  0
 18 16  2  0  0  0  0
 21 20  1  0  0  0  0
M  RAD  3   2   2   3   3   4   2
M  END
