Coordinates from ORCA-job 4-NO2PhN2+~HSO4-_B3LYPG-6-31G_dp-CH-Scan-d09-49-n800
 OpenBabel11261919243D

 21 20  0  0  0  0  0  0  0  0999 V2000
   -1.6118   -0.4614   -1.0620 C   0  0  0  0  0  0  0  0  0  0  0  0
   -2.8178   -1.0521   -1.4930 N   0  0  0  0  0  0  0  0  0  0  0  0
   -3.7247   -1.5436   -1.9183 N   0  0  0  0  0  0  0  0  0  0  0  0
   -0.6116   -0.5846   -2.0243 C   0  0  0  0  0  0  0  0  0  0  0  0
    0.5869    0.0317   -1.5474 C   0  0  0  0  0  0  0  0  0  0  0  0
    0.6564    0.6400   -0.3032 C   0  0  0  0  0  0  0  0  0  0  0  0
    1.9301    1.2741    0.1278 N   0  0  0  0  0  0  0  0  0  0  0  0
    2.8991    1.1752   -0.6184 O   0  0  0  0  0  0  0  0  0  0  0  0
    1.9315    1.8674    1.2073 O   0  0  0  0  0  0  0  0  0  0  0  0
   -0.4244    0.7040    0.6063 C   0  0  0  0  0  0  0  0  0  0  0  0
   -1.6178    0.1307    0.2288 C   0  0  0  0  0  0  0  0  0  0  0  0
   -3.2537    3.1040   -0.3686 H   0  0  0  0  0  0  0  0  0  0  0  0
    1.4837    0.0384   -2.1609 H   0  0  0  0  0  0  0  0  0  0  0  0
   -0.2896    1.1857    1.5653 H   0  0  0  0  0  0  0  0  0  0  0  0
   -2.4923    0.1303    0.8712 H   0  0  0  0  0  0  0  0  0  0  0  0
   -5.1117    2.2457    0.2650 S   0  0  0  0  0  0  0  0  0  0  0  0
   -4.1343    3.4641   -0.1631 O   0  0  0  0  0  0  0  0  0  0  0  0
   -6.4550    2.7695    0.1920 O   0  0  0  0  0  0  0  0  0  0  0  0
   -4.6735    1.0350   -0.4031 O   0  0  0  0  0  0  0  0  0  0  0  0
   -4.7086    2.0282    1.8244 O   0  0  0  0  0  0  0  0  0  0  0  0
   -5.2078    2.6668    2.3630 H   0  0  0  0  0  0  0  0  0  0  0  0
  1 11  2  0  0  0  0
  2  1  1  0  0  0  0
  3  2  1  0  0  0  0
  4  5  2  0  0  0  0
  4  1  1  0  0  0  0
  5  6  1  0  0  0  0
  6  7  1  0  0  0  0
  6 10  2  0  0  0  0
  7  9  2  0  0  0  0
  8  7  2  0  0  0  0
 10 14  1  0  0  0  0
 11 10  1  0  0  0  0
 11 15  1  0  0  0  0
 12 17  1  0  0  0  0
 13  5  1  0  0  0  0
 16 20  1  0  0  0  0
 17 16  1  0  0  0  0
 18 16  2  0  0  0  0
 19 16  2  0  0  0  0
 20 21  1  0  0  0  0
M  RAD  3   2   2   3   3   4   2
M  END
