Coordinates from ORCA-job 4-NO2PhN2+~HSO4-_B3LYPG-6-31G_dp-CH-Scan-d09-49-n800
 OpenBabel11261919243D

 21 20  0  0  0  0  0  0  0  0999 V2000
   -1.9284   -0.3277   -0.1759 C   0  0  0  0  0  0  0  0  0  0  0  0
   -3.2288   -0.8272   -0.2570 N   0  0  0  0  0  0  0  0  0  0  0  0
   -4.2780   -1.1904   -0.3317 N   0  0  0  0  0  0  0  0  0  0  0  0
   -1.7680    1.0151   -0.5458 C   0  0  0  0  0  0  0  0  0  0  0  0
   -0.4217    1.4338   -0.4463 C   0  0  0  0  0  0  0  0  0  0  0  0
    0.5774    0.5659   -0.0270 C   0  0  0  0  0  0  0  0  0  0  0  0
    1.9767    1.0621    0.0550 N   0  0  0  0  0  0  0  0  0  0  0  0
    2.1817    2.2284   -0.2621 O   0  0  0  0  0  0  0  0  0  0  0  0
    2.8325    0.2662    0.4359 O   0  0  0  0  0  0  0  0  0  0  0  0
    0.3480   -0.7738    0.3311 C   0  0  0  0  0  0  0  0  0  0  0  0
   -0.9437   -1.2493    0.2574 C   0  0  0  0  0  0  0  0  0  0  0  0
   -2.9415    1.9845   -0.9727 H   0  0  0  0  0  0  0  0  0  0  0  0
   -0.1457    2.4518   -0.6986 H   0  0  0  0  0  0  0  0  0  0  0  0
    1.1736   -1.3950    0.6515 H   0  0  0  0  0  0  0  0  0  0  0  0
   -1.1913   -2.2722    0.5208 H   0  0  0  0  0  0  0  0  0  0  0  0
   -5.0189    2.5880   -0.4002 S   0  0  0  0  0  0  0  0  0  0  0  0
   -3.7489    2.6900   -1.2953 O   0  0  0  0  0  0  0  0  0  0  0  0
   -6.1913    3.0020   -1.1564 O   0  0  0  0  0  0  0  0  0  0  0  0
   -5.0103    1.3217    0.3337 O   0  0  0  0  0  0  0  0  0  0  0  0
   -4.7669    3.7252    0.7545 O   0  0  0  0  0  0  0  0  0  0  0  0
   -5.1532    4.5500    0.4179 H   0  0  0  0  0  0  0  0  0  0  0  0
  1 11  2  0  0  0  0
  2  1  1  0  0  0  0
  3  2  1  0  0  0  0
  4  5  2  0  0  0  0
  4  1  1  0  0  0  0
  5  6  1  0  0  0  0
  6  7  1  0  0  0  0
  6 10  2  0  0  0  0
  7  9  2  0  0  0  0
  8  7  2  0  0  0  0
 10 14  1  0  0  0  0
 11 10  1  0  0  0  0
 11 15  1  0  0  0  0
 13  5  1  0  0  0  0
 16 19  2  0  0  0  0
 16 20  1  0  0  0  0
 17 12  1  0  0  0  0
 17 16  1  0  0  0  0
 18 16  2  0  0  0  0
 21 20  1  0  0  0  0
M  RAD  3   2   2   3   3   4   2
M  END
