Coordinates from ORCA-job 4-NO2PhN2+~HSO4-_B3LYPG-6-31G_dp-CH-Scan-d09-49-n800
 OpenBabel11261919243D

 21 20  0  0  0  0  0  0  0  0999 V2000
   -1.8065   -0.3639   -0.1337 C   0  0  0  0  0  0  0  0  0  0  0  0
   -3.1189   -0.8443   -0.2011 N   0  0  0  0  0  0  0  0  0  0  0  0
   -4.1759   -1.1899   -0.2718 N   0  0  0  0  0  0  0  0  0  0  0  0
   -1.6531    0.9612   -0.5614 C   0  0  0  0  0  0  0  0  0  0  0  0
   -0.2917    1.3602   -0.4677 C   0  0  0  0  0  0  0  0  0  0  0  0
    0.6959    0.5007   -0.0088 C   0  0  0  0  0  0  0  0  0  0  0  0
    2.1009    0.9830    0.0609 N   0  0  0  0  0  0  0  0  0  0  0  0
    2.3244    2.1343   -0.2984 O   0  0  0  0  0  0  0  0  0  0  0  0
    2.9482    0.1936    0.4755 O   0  0  0  0  0  0  0  0  0  0  0  0
    0.4537   -0.8244    0.4046 C   0  0  0  0  0  0  0  0  0  0  0  0
   -0.8409   -1.2879    0.3451 C   0  0  0  0  0  0  0  0  0  0  0  0
   -3.3250    2.3347   -1.2369 H   0  0  0  0  0  0  0  0  0  0  0  0
    0.0081    2.3616   -0.7586 H   0  0  0  0  0  0  0  0  0  0  0  0
    1.2730   -1.4386    0.7530 H   0  0  0  0  0  0  0  0  0  0  0  0
   -1.1024   -2.2969    0.6481 H   0  0  0  0  0  0  0  0  0  0  0  0
   -5.3004    2.6804   -0.4700 S   0  0  0  0  0  0  0  0  0  0  0  0
   -4.0962    2.9100   -1.4921 O   0  0  0  0  0  0  0  0  0  0  0  0
   -6.4720    3.2901   -1.0650 O   0  0  0  0  0  0  0  0  0  0  0  0
   -5.2861    1.3103    0.0136 O   0  0  0  0  0  0  0  0  0  0  0  0
   -4.8537    3.5795    0.8152 O   0  0  0  0  0  0  0  0  0  0  0  0
   -5.1282    4.4954    0.6385 H   0  0  0  0  0  0  0  0  0  0  0  0
  1 11  2  0  0  0  0
  2  1  1  0  0  0  0
  3  2  1  0  0  0  0
  4  5  2  0  0  0  0
  4  1  1  0  0  0  0
  5  6  1  0  0  0  0
  6  7  1  0  0  0  0
  6 10  2  0  0  0  0
  7  9  2  0  0  0  0
  8  7  2  0  0  0  0
 10 14  1  0  0  0  0
 11 10  1  0  0  0  0
 11 15  1  0  0  0  0
 13  5  1  0  0  0  0
 16 19  2  0  0  0  0
 16 20  1  0  0  0  0
 17 12  1  0  0  0  0
 17 16  1  0  0  0  0
 18 16  2  0  0  0  0
 21 20  1  0  0  0  0
M  RAD  3   2   2   3   3   4   2
M  END
