Coordinates from ORCA-job 4-NO2PhN2+~HSO4-_B3LYPG-6-31G_dp-CH-Scan-d09-49-n800
 OpenBabel11261919243D

 21 20  0  0  0  0  0  0  0  0999 V2000
   -1.5653   -0.3941   -0.1208 C   0  0  0  0  0  0  0  0  0  0  0  0
   -2.9142   -0.7815   -0.1998 N   0  0  0  0  0  0  0  0  0  0  0  0
   -3.9962   -1.0371   -0.2943 N   0  0  0  0  0  0  0  0  0  0  0  0
   -1.3368    0.8814   -0.6428 C   0  0  0  0  0  0  0  0  0  0  0  0
    0.0502    1.2003   -0.5344 C   0  0  0  0  0  0  0  0  0  0  0  0
    0.9696    0.3219    0.0194 C   0  0  0  0  0  0  0  0  0  0  0  0
    2.3992    0.7227    0.1012 N   0  0  0  0  0  0  0  0  0  0  0  0
    2.7051    1.8336   -0.3215 O   0  0  0  0  0  0  0  0  0  0  0  0
    3.1881   -0.0864    0.5891 O   0  0  0  0  0  0  0  0  0  0  0  0
    0.6367   -0.9548    0.5223 C   0  0  0  0  0  0  0  0  0  0  0  0
   -0.6810   -1.3442    0.4565 C   0  0  0  0  0  0  0  0  0  0  0  0
   -3.9563    3.0922   -1.6525 H   0  0  0  0  0  0  0  0  0  0  0  0
    0.4240    2.1564   -0.8890 H   0  0  0  0  0  0  0  0  0  0  0  0
    1.4087   -1.5871    0.9391 H   0  0  0  0  0  0  0  0  0  0  0  0
   -1.0137   -2.3111    0.8223 H   0  0  0  0  0  0  0  0  0  0  0  0
   -5.7407    2.8270   -0.4976 S   0  0  0  0  0  0  0  0  0  0  0  0
   -4.8493    3.4792   -1.6797 O   0  0  0  0  0  0  0  0  0  0  0  0
   -7.1066    3.2021   -0.7895 O   0  0  0  0  0  0  0  0  0  0  0  0
   -5.3103    1.4637   -0.2672 O   0  0  0  0  0  0  0  0  0  0  0  0
   -5.2364    3.6611    0.8035 O   0  0  0  0  0  0  0  0  0  0  0  0
   -5.7214    4.5039    0.8245 H   0  0  0  0  0  0  0  0  0  0  0  0
  1 11  2  0  0  0  0
  2  1  1  0  0  0  0
  3  2  1  0  0  0  0
  4  5  2  0  0  0  0
  4  1  1  0  0  0  0
  5  6  1  0  0  0  0
  6  7  1  0  0  0  0
  6 10  2  0  0  0  0
  7  9  2  0  0  0  0
  8  7  2  0  0  0  0
 10 14  1  0  0  0  0
 11 10  1  0  0  0  0
 11 15  1  0  0  0  0
 13  5  1  0  0  0  0
 16 19  2  0  0  0  0
 16 20  1  0  0  0  0
 17 12  1  0  0  0  0
 17 16  1  0  0  0  0
 18 16  2  0  0  0  0
 20 21  1  0  0  0  0
M  RAD  3   2   2   3   3   4   2
M  END
