Coordinates from ORCA-job 4-NO2PhN2+~HSO4-_B3LYPG-6-31G_dp-CH-Scan-d09-49-n800
 OpenBabel11261919243D

 21 20  0  0  0  0  0  0  0  0999 V2000
   -1.6973   -0.5074   -0.7755 C   0  0  0  0  0  0  0  0  0  0  0  0
   -2.9041   -1.0679   -1.2309 N   0  0  0  0  0  0  0  0  0  0  0  0
   -3.8450   -1.4742   -1.6728 N   0  0  0  0  0  0  0  0  0  0  0  0
   -1.1411    0.3527   -1.7216 C   0  0  0  0  0  0  0  0  0  0  0  0
    0.0785    0.8939   -1.2137 C   0  0  0  0  0  0  0  0  0  0  0  0
    0.5597    0.5697    0.0465 C   0  0  0  0  0  0  0  0  0  0  0  0
    1.8287    1.1825    0.5195 N   0  0  0  0  0  0  0  0  0  0  0  0
    2.3816    1.9930   -0.2188 O   0  0  0  0  0  0  0  0  0  0  0  0
    2.2488    0.8399    1.6248 O   0  0  0  0  0  0  0  0  0  0  0  0
   -0.0849   -0.3219    0.9329 C   0  0  0  0  0  0  0  0  0  0  0  0
   -1.2653   -0.8948    0.5192 C   0  0  0  0  0  0  0  0  0  0  0  0
   -4.6374    3.0004   -1.9971 H   0  0  0  0  0  0  0  0  0  0  0  0
    0.6652    1.5860   -1.8115 H   0  0  0  0  0  0  0  0  0  0  0  0
    0.3538   -0.5304    1.8991 H   0  0  0  0  0  0  0  0  0  0  0  0
   -1.8206   -1.5879    1.1446 H   0  0  0  0  0  0  0  0  0  0  0  0
   -4.9861    2.4799    0.0538 S   0  0  0  0  0  0  0  0  0  0  0  0
   -5.2066    3.3557   -1.2923 O   0  0  0  0  0  0  0  0  0  0  0  0
   -6.0788    2.8338    0.9310 O   0  0  0  0  0  0  0  0  0  0  0  0
   -4.6559    1.1189   -0.3186 O   0  0  0  0  0  0  0  0  0  0  0  0
   -3.6100    3.1073    0.6410 O   0  0  0  0  0  0  0  0  0  0  0  0
   -3.8299    3.9198    1.1292 H   0  0  0  0  0  0  0  0  0  0  0  0
  1 11  2  0  0  0  0
  2  1  1  0  0  0  0
  3  2  1  0  0  0  0
  4  5  2  0  0  0  0
  4  1  1  0  0  0  0
  5  6  1  0  0  0  0
  6  7  1  0  0  0  0
  6 10  2  0  0  0  0
  7  9  2  0  0  0  0
  8  7  2  0  0  0  0
 10 14  1  0  0  0  0
 11 10  1  0  0  0  0
 11 15  1  0  0  0  0
 12 17  1  0  0  0  0
 13  5  1  0  0  0  0
 16 20  1  0  0  0  0
 16 18  2  0  0  0  0
 17 16  1  0  0  0  0
 19 16  2  0  0  0  0
 20 21  1  0  0  0  0
M  RAD  3   2   2   3   3   4   2
M  END
