Coordinates from ORCA-job 4-NO2PhN2+~HSO4-_B3LYPG-6-31G_dp-CH-Scan-d09-49-n800
 OpenBabel11261919243D

 21 20  0  0  0  0  0  0  0  0999 V2000
   -1.7286   -0.3700   -0.1134 C   0  0  0  0  0  0  0  0  0  0  0  0
   -3.0538   -0.8206   -0.1752 N   0  0  0  0  0  0  0  0  0  0  0  0
   -4.1193   -1.1410   -0.2463 N   0  0  0  0  0  0  0  0  0  0  0  0
   -1.5541    0.9439   -0.5629 C   0  0  0  0  0  0  0  0  0  0  0  0
   -0.1822    1.3146   -0.4756 C   0  0  0  0  0  0  0  0  0  0  0  0
    0.7877    0.4423   -0.0039 C   0  0  0  0  0  0  0  0  0  0  0  0
    2.2027    0.8956    0.0573 N   0  0  0  0  0  0  0  0  0  0  0  0
    2.4512    2.0364   -0.3197 O   0  0  0  0  0  0  0  0  0  0  0  0
    3.0344    0.0954    0.4834 O   0  0  0  0  0  0  0  0  0  0  0  0
    0.5191   -0.8718    0.4315 C   0  0  0  0  0  0  0  0  0  0  0  0
   -0.7846   -1.3092    0.3806 C   0  0  0  0  0  0  0  0  0  0  0  0
   -3.4914    2.5655   -1.3366 H   0  0  0  0  0  0  0  0  0  0  0  0
    0.1402    2.3046   -0.7823 H   0  0  0  0  0  0  0  0  0  0  0  0
    1.3263   -1.4965    0.7889 H   0  0  0  0  0  0  0  0  0  0  0  0
   -1.0670   -2.3078    0.6996 H   0  0  0  0  0  0  0  0  0  0  0  0
   -5.4531    2.7316   -0.4921 S   0  0  0  0  0  0  0  0  0  0  0  0
   -4.2930    3.0958   -1.5404 O   0  0  0  0  0  0  0  0  0  0  0  0
   -6.6735    3.2914   -1.0332 O   0  0  0  0  0  0  0  0  0  0  0  0
   -5.3280    1.3456   -0.0814 O   0  0  0  0  0  0  0  0  0  0  0  0
   -5.0239    3.5989    0.8177 O   0  0  0  0  0  0  0  0  0  0  0  0
   -5.3559    4.5043    0.6928 H   0  0  0  0  0  0  0  0  0  0  0  0
  1 11  2  0  0  0  0
  2  1  1  0  0  0  0
  3  2  1  0  0  0  0
  4  5  2  0  0  0  0
  4  1  1  0  0  0  0
  5  6  1  0  0  0  0
  6  7  1  0  0  0  0
  6 10  2  0  0  0  0
  7  9  2  0  0  0  0
  8  7  2  0  0  0  0
 10 14  1  0  0  0  0
 11 10  1  0  0  0  0
 11 15  1  0  0  0  0
 13  5  1  0  0  0  0
 16 19  2  0  0  0  0
 16 20  1  0  0  0  0
 17 12  1  0  0  0  0
 17 16  1  0  0  0  0
 18 16  2  0  0  0  0
 21 20  1  0  0  0  0
M  RAD  3   2   2   3   3   4   2
M  END
