Coordinates from ORCA-job 4-NO2PhN2+~HSO4-_B3LYPG-6-31G_dp-CH-Scan-d09-49-n800
 OpenBabel11261919243D

 21 20  0  0  0  0  0  0  0  0999 V2000
   -1.5972   -0.4269   -0.2427 C   0  0  0  0  0  0  0  0  0  0  0  0
   -2.9284   -0.8518   -0.4004 N   0  0  0  0  0  0  0  0  0  0  0  0
   -3.9943   -1.1363   -0.5678 N   0  0  0  0  0  0  0  0  0  0  0  0
   -1.3539    0.8093   -0.8444 C   0  0  0  0  0  0  0  0  0  0  0  0
    0.0137    1.1714   -0.6544 C   0  0  0  0  0  0  0  0  0  0  0  0
    0.9023    0.3635    0.0393 C   0  0  0  0  0  0  0  0  0  0  0  0
    2.3120    0.8069    0.2027 N   0  0  0  0  0  0  0  0  0  0  0  0
    2.6307    1.8866   -0.2865 O   0  0  0  0  0  0  0  0  0  0  0  0
    3.0733    0.0625    0.8202 O   0  0  0  0  0  0  0  0  0  0  0  0
    0.5552   -0.8785    0.6146 C   0  0  0  0  0  0  0  0  0  0  0  0
   -0.7447   -1.3066    0.4760 C   0  0  0  0  0  0  0  0  0  0  0  0
   -4.0956    3.0481   -1.8638 H   0  0  0  0  0  0  0  0  0  0  0  0
    0.3960    2.1061   -1.0542 H   0  0  0  0  0  0  0  0  0  0  0  0
    1.3039   -1.4560    1.1399 H   0  0  0  0  0  0  0  0  0  0  0  0
   -1.0863   -2.2514    0.8884 H   0  0  0  0  0  0  0  0  0  0  0  0
   -5.6369    2.7952   -0.3959 S   0  0  0  0  0  0  0  0  0  0  0  0
   -4.9701    3.4496   -1.7175 O   0  0  0  0  0  0  0  0  0  0  0  0
   -7.0221    3.2104   -0.4161 O   0  0  0  0  0  0  0  0  0  0  0  0
   -5.2099    1.4169   -0.2741 O   0  0  0  0  0  0  0  0  0  0  0  0
   -4.8703    3.5897    0.7968 O   0  0  0  0  0  0  0  0  0  0  0  0
   -5.3240    4.4399    0.9288 H   0  0  0  0  0  0  0  0  0  0  0  0
  1 11  2  0  0  0  0
  2  1  1  0  0  0  0
  3  2  1  0  0  0  0
  4  5  2  0  0  0  0
  4  1  1  0  0  0  0
  5  6  1  0  0  0  0
  6  7  1  0  0  0  0
  6 10  2  0  0  0  0
  7  9  2  0  0  0  0
  8  7  2  0  0  0  0
 10 14  1  0  0  0  0
 11 10  1  0  0  0  0
 11 15  1  0  0  0  0
 12 17  1  0  0  0  0
 13  5  1  0  0  0  0
 16 19  2  0  0  0  0
 16 20  1  0  0  0  0
 17 16  1  0  0  0  0
 18 16  2  0  0  0  0
 20 21  1  0  0  0  0
M  RAD  3   2   2   3   3   4   2
M  END
