Coordinates from ORCA-job 4-NO2PhN2+~HSO4-_B3LYPG-6-31G_dp-CH-Scan-d09-49-n800
 OpenBabel11261919243D

 21 20  0  0  0  0  0  0  0  0999 V2000
   -1.5931   -0.3858   -0.0995 C   0  0  0  0  0  0  0  0  0  0  0  0
   -2.9394   -0.7817   -0.1629 N   0  0  0  0  0  0  0  0  0  0  0  0
   -4.0206   -1.0474   -0.2340 N   0  0  0  0  0  0  0  0  0  0  0  0
   -1.3783    0.9031   -0.5951 C   0  0  0  0  0  0  0  0  0  0  0  0
    0.0082    1.2271   -0.5048 C   0  0  0  0  0  0  0  0  0  0  0  0
    0.9421    0.3404    0.0105 C   0  0  0  0  0  0  0  0  0  0  0  0
    2.3711    0.7467    0.0744 N   0  0  0  0  0  0  0  0  0  0  0  0
    2.6638    1.8673   -0.3315 O   0  0  0  0  0  0  0  0  0  0  0  0
    3.1719   -0.0678    0.5325 O   0  0  0  0  0  0  0  0  0  0  0  0
    0.6245   -0.9490    0.4895 C   0  0  0  0  0  0  0  0  0  0  0  0
   -0.6924   -1.3434    0.4391 C   0  0  0  0  0  0  0  0  0  0  0  0
   -3.8349    2.9904   -1.5535 H   0  0  0  0  0  0  0  0  0  0  0  0
    0.3704    2.1932   -0.8434 H   0  0  0  0  0  0  0  0  0  0  0  0
    1.4069   -1.5870    0.8773 H   0  0  0  0  0  0  0  0  0  0  0  0
   -1.0134   -2.3202    0.7886 H   0  0  0  0  0  0  0  0  0  0  0  0
   -5.6987    2.8148   -0.5142 S   0  0  0  0  0  0  0  0  0  0  0  0
   -4.7071    3.4158   -1.6400 O   0  0  0  0  0  0  0  0  0  0  0  0
   -7.0283    3.2320   -0.9018 O   0  0  0  0  0  0  0  0  0  0  0  0
   -5.3353    1.4404   -0.2358 O   0  0  0  0  0  0  0  0  0  0  0  0
   -5.2548    3.6503    0.8083 O   0  0  0  0  0  0  0  0  0  0  0  0
   -5.7095    4.5097    0.7849 H   0  0  0  0  0  0  0  0  0  0  0  0
  1 11  2  0  0  0  0
  2  1  1  0  0  0  0
  3  2  1  0  0  0  0
  4  5  2  0  0  0  0
  4  1  1  0  0  0  0
  5  6  1  0  0  0  0
  6  7  1  0  0  0  0
  6 10  2  0  0  0  0
  7  9  2  0  0  0  0
  8  7  2  0  0  0  0
 10 14  1  0  0  0  0
 11 10  1  0  0  0  0
 11 15  1  0  0  0  0
 13  5  1  0  0  0  0
 16 19  2  0  0  0  0
 16 20  1  0  0  0  0
 17 12  1  0  0  0  0
 17 16  1  0  0  0  0
 18 16  2  0  0  0  0
 21 20  1  0  0  0  0
M  RAD  3   2   2   3   3   4   2
M  END
