Coordinates from ORCA-job 4-NO2PhN2+~HSO4-_B3LYPG-6-31G_dp-CH-Scan-d09-49-n800
 OpenBabel11261919243D

 21 20  0  0  0  0  0  0  0  0999 V2000
   -1.5960   -0.3847   -0.0956 C   0  0  0  0  0  0  0  0  0  0  0  0
   -2.9422   -0.7813   -0.1550 N   0  0  0  0  0  0  0  0  0  0  0  0
   -4.0220   -1.0489   -0.2395 N   0  0  0  0  0  0  0  0  0  0  0  0
   -1.3823    0.9043   -0.5917 C   0  0  0  0  0  0  0  0  0  0  0  0
    0.0042    1.2286   -0.5038 C   0  0  0  0  0  0  0  0  0  0  0  0
    0.9395    0.3419    0.0090 C   0  0  0  0  0  0  0  0  0  0  0  0
    2.3686    0.7484    0.0697 N   0  0  0  0  0  0  0  0  0  0  0  0
    2.6601    1.8690   -0.3368 O   0  0  0  0  0  0  0  0  0  0  0  0
    3.1704   -0.0659    0.5263 O   0  0  0  0  0  0  0  0  0  0  0  0
    0.6231   -0.9476    0.4884 C   0  0  0  0  0  0  0  0  0  0  0  0
   -0.6938   -1.3421    0.4409 C   0  0  0  0  0  0  0  0  0  0  0  0
   -3.8217    2.9834   -1.5416 H   0  0  0  0  0  0  0  0  0  0  0  0
    0.3655    2.1950   -0.8426 H   0  0  0  0  0  0  0  0  0  0  0  0
    1.4064   -1.5855    0.8746 H   0  0  0  0  0  0  0  0  0  0  0  0
   -1.0139   -2.3189    0.7913 H   0  0  0  0  0  0  0  0  0  0  0  0
   -5.6943    2.8138   -0.5165 S   0  0  0  0  0  0  0  0  0  0  0  0
   -4.6914    3.4131   -1.6329 O   0  0  0  0  0  0  0  0  0  0  0  0
   -7.0192    3.2358   -0.9146 O   0  0  0  0  0  0  0  0  0  0  0  0
   -5.3378    1.4379   -0.2368 O   0  0  0  0  0  0  0  0  0  0  0  0
   -5.2590    3.6460    0.8111 O   0  0  0  0  0  0  0  0  0  0  0  0
   -5.7109    4.5068    0.7851 H   0  0  0  0  0  0  0  0  0  0  0  0
  1 11  2  0  0  0  0
  2  1  1  0  0  0  0
  3  2  1  0  0  0  0
  4  5  2  0  0  0  0
  4  1  1  0  0  0  0
  5  6  1  0  0  0  0
  6  7  1  0  0  0  0
  6 10  2  0  0  0  0
  7  9  2  0  0  0  0
  8  7  2  0  0  0  0
 10 14  1  0  0  0  0
 11 10  1  0  0  0  0
 11 15  1  0  0  0  0
 13  5  1  0  0  0  0
 16 19  2  0  0  0  0
 16 20  1  0  0  0  0
 17 12  1  0  0  0  0
 17 16  1  0  0  0  0
 18 16  2  0  0  0  0
 21 20  1  0  0  0  0
M  RAD  3   2   2   3   3   4   2
M  END
