Coordinates from ORCA-job 4-NO2PhN2+~HSO4-_B3LYPG-6-31G_dp-CH-Scan-d09-49-n800
 OpenBabel11261919243D

 21 20  0  0  0  0  0  0  0  0999 V2000
   -1.6734   -0.4796   -0.5321 C   0  0  0  0  0  0  0  0  0  0  0  0
   -2.9416   -0.9878   -0.8661 N   0  0  0  0  0  0  0  0  0  0  0  0
   -3.9478   -1.3386   -1.1977 N   0  0  0  0  0  0  0  0  0  0  0  0
   -1.3309    0.6268   -1.3103 C   0  0  0  0  0  0  0  0  0  0  0  0
   -0.0339    1.0902   -0.9348 C   0  0  0  0  0  0  0  0  0  0  0  0
    0.7048    0.4811    0.0687 C   0  0  0  0  0  0  0  0  0  0  0  0
    2.0454    1.0226    0.4144 N   0  0  0  0  0  0  0  0  0  0  0  0
    2.4398    2.0074   -0.2035 O   0  0  0  0  0  0  0  0  0  0  0  0
    2.6796    0.4482    1.2992 O   0  0  0  0  0  0  0  0  0  0  0  0
    0.2641   -0.6427    0.8022 C   0  0  0  0  0  0  0  0  0  0  0  0
   -0.9749   -1.1584    0.5003 C   0  0  0  0  0  0  0  0  0  0  0  0
   -4.4210    2.9506   -2.0878 H   0  0  0  0  0  0  0  0  0  0  0  0
    0.4105    1.9472   -1.4328 H   0  0  0  0  0  0  0  0  0  0  0  0
    0.8977   -1.0655    1.5704 H   0  0  0  0  0  0  0  0  0  0  0  0
   -1.3814   -2.0218    1.0188 H   0  0  0  0  0  0  0  0  0  0  0  0
   -5.2873    2.6565   -0.1463 S   0  0  0  0  0  0  0  0  0  0  0  0
   -5.1501    3.3676   -1.5957 O   0  0  0  0  0  0  0  0  0  0  0  0
   -6.5515    3.1115    0.3879 O   0  0  0  0  0  0  0  0  0  0  0  0
   -4.9159    1.2614   -0.2612 O   0  0  0  0  0  0  0  0  0  0  0  0
   -4.0813    3.3553    0.6867 O   0  0  0  0  0  0  0  0  0  0  0  0
   -4.3976    4.2171    1.0086 H   0  0  0  0  0  0  0  0  0  0  0  0
  1 11  2  0  0  0  0
  2  1  1  0  0  0  0
  3  2  1  0  0  0  0
  4  5  2  0  0  0  0
  4  1  1  0  0  0  0
  5  6  1  0  0  0  0
  6  7  1  0  0  0  0
  6 10  2  0  0  0  0
  7  9  2  0  0  0  0
  8  7  2  0  0  0  0
 10 14  1  0  0  0  0
 11 10  1  0  0  0  0
 11 15  1  0  0  0  0
 12 17  1  0  0  0  0
 13  5  1  0  0  0  0
 16 18  2  0  0  0  0
 16 20  1  0  0  0  0
 17 16  1  0  0  0  0
 19 16  2  0  0  0  0
 20 21  1  0  0  0  0
M  RAD  3   2   2   3   3   4   2
M  END
