Coordinates from ORCA-job 4-NO2PhN2+~HSO4-_B3LYPG-6-31G_dp-CH-Scan-d09-49-n800
 OpenBabel11261919243D

 21 20  0  0  0  0  0  0  0  0999 V2000
   -1.8539   -0.3590   -0.1449 C   0  0  0  0  0  0  0  0  0  0  0  0
   -3.1586   -0.8567   -0.2144 N   0  0  0  0  0  0  0  0  0  0  0  0
   -4.2107   -1.2157   -0.2856 N   0  0  0  0  0  0  0  0  0  0  0  0
   -1.7113    0.9715   -0.5615 C   0  0  0  0  0  0  0  0  0  0  0  0
   -0.3562    1.3858   -0.4656 C   0  0  0  0  0  0  0  0  0  0  0  0
    0.6414    0.5340   -0.0134 C   0  0  0  0  0  0  0  0  0  0  0  0
    2.0405    1.0323    0.0596 N   0  0  0  0  0  0  0  0  0  0  0  0
    2.2499    2.1885   -0.2919 O   0  0  0  0  0  0  0  0  0  0  0  0
    2.8964    0.2494    0.4682 O   0  0  0  0  0  0  0  0  0  0  0  0
    0.4137   -0.7961    0.3892 C   0  0  0  0  0  0  0  0  0  0  0  0
   -0.8761   -1.2735    0.3259 C   0  0  0  0  0  0  0  0  0  0  0  0
   -3.2152    2.2036   -1.1674 H   0  0  0  0  0  0  0  0  0  0  0  0
   -0.0696    2.3931   -0.7492 H   0  0  0  0  0  0  0  0  0  0  0  0
    1.2394   -1.4042    0.7329 H   0  0  0  0  0  0  0  0  0  0  0  0
   -1.1259   -2.2876    0.6209 H   0  0  0  0  0  0  0  0  0  0  0  0
   -5.2034    2.6496   -0.4602 S   0  0  0  0  0  0  0  0  0  0  0  0
   -3.9736    2.8099   -1.4517 O   0  0  0  0  0  0  0  0  0  0  0  0
   -6.3483    3.2763   -1.0912 O   0  0  0  0  0  0  0  0  0  0  0  0
   -5.2470    1.2931    0.0638 O   0  0  0  0  0  0  0  0  0  0  0  0
   -4.7631    3.5693    0.8154 O   0  0  0  0  0  0  0  0  0  0  0  0
   -5.0153    4.4854    0.6100 H   0  0  0  0  0  0  0  0  0  0  0  0
  1 11  2  0  0  0  0
  2  1  1  0  0  0  0
  3  2  1  0  0  0  0
  4  5  2  0  0  0  0
  4  1  1  0  0  0  0
  5  6  1  0  0  0  0
  6  7  1  0  0  0  0
  6 10  2  0  0  0  0
  7  9  2  0  0  0  0
  8  7  2  0  0  0  0
 10 14  1  0  0  0  0
 11 10  1  0  0  0  0
 11 15  1  0  0  0  0
 13  5  1  0  0  0  0
 16 19  2  0  0  0  0
 16 20  1  0  0  0  0
 17 12  1  0  0  0  0
 17 16  1  0  0  0  0
 18 16  2  0  0  0  0
 21 20  1  0  0  0  0
M  RAD  3   2   2   3   3   4   2
M  END
