Coordinates from ORCA-job 4-NO2PhN2+~HSO4-_B3LYPG-6-31G_dp-CH-Scan-d09-49-n800
 OpenBabel11261919243D

 21 20  0  0  0  0  0  0  0  0999 V2000
   -1.6808   -0.4965   -0.6776 C   0  0  0  0  0  0  0  0  0  0  0  0
   -2.9151   -1.0305   -1.0899 N   0  0  0  0  0  0  0  0  0  0  0  0
   -3.8860   -1.4066   -1.4918 N   0  0  0  0  0  0  0  0  0  0  0  0
   -1.2207    0.4794   -1.5612 C   0  0  0  0  0  0  0  0  0  0  0  0
    0.0334    0.9840   -1.1019 C   0  0  0  0  0  0  0  0  0  0  0  0
    0.6301    0.5246    0.0631 C   0  0  0  0  0  0  0  0  0  0  0  0
    1.9311    1.1035    0.4902 N   0  0  0  0  0  0  0  0  0  0  0  0
    2.4182    1.9894   -0.2065 O   0  0  0  0  0  0  0  0  0  0  0  0
    2.4413    0.6593    1.5187 O   0  0  0  0  0  0  0  0  0  0  0  0
    0.0766   -0.4763    0.8924 C   0  0  0  0  0  0  0  0  0  0  0  0
   -1.1299   -1.0220    0.5197 C   0  0  0  0  0  0  0  0  0  0  0  0
   -4.6302    2.9894   -2.0700 H   0  0  0  0  0  0  0  0  0  0  0  0
    0.5558    1.7546   -1.6619 H   0  0  0  0  0  0  0  0  0  0  0  0
    0.6021   -0.7855    1.7857 H   0  0  0  0  0  0  0  0  0  0  0  0
   -1.6187   -1.7951    1.1055 H   0  0  0  0  0  0  0  0  0  0  0  0
   -5.1180    2.5622   -0.0263 S   0  0  0  0  0  0  0  0  0  0  0  0
   -5.2565    3.3656   -1.4271 O   0  0  0  0  0  0  0  0  0  0  0  0
   -6.2745    2.9407    0.7542 O   0  0  0  0  0  0  0  0  0  0  0  0
   -4.7436    1.1907   -0.3038 O   0  0  0  0  0  0  0  0  0  0  0  0
   -3.7965    3.2441    0.6231 O   0  0  0  0  0  0  0  0  0  0  0  0
   -4.0647    4.0740    1.0542 H   0  0  0  0  0  0  0  0  0  0  0  0
  1 11  2  0  0  0  0
  2  1  1  0  0  0  0
  3  2  1  0  0  0  0
  4  5  2  0  0  0  0
  4  1  1  0  0  0  0
  5  6  1  0  0  0  0
  6  7  1  0  0  0  0
  6 10  2  0  0  0  0
  7  9  2  0  0  0  0
  8  7  2  0  0  0  0
 10 14  1  0  0  0  0
 11 10  1  0  0  0  0
 11 15  1  0  0  0  0
 12 17  1  0  0  0  0
 13  5  1  0  0  0  0
 16 20  1  0  0  0  0
 16 18  2  0  0  0  0
 17 16  1  0  0  0  0
 19 16  2  0  0  0  0
 20 21  1  0  0  0  0
M  RAD  3   2   2   3   3   4   2
M  END
