Coordinates from ORCA-job 4-NO2PhN2+~HSO4-_B3LYPG-6-31G_dp-CH-Scan-d09-49-n800
 OpenBabel11261919243D

 21 20  0  0  0  0  0  0  0  0999 V2000
   -1.6458   -0.5148   -1.0462 C   0  0  0  0  0  0  0  0  0  0  0  0
   -2.8444   -1.1282   -1.4648 N   0  0  0  0  0  0  0  0  0  0  0  0
   -3.7451   -1.6408   -1.8771 N   0  0  0  0  0  0  0  0  0  0  0  0
   -0.6379   -0.6527   -1.9976 C   0  0  0  0  0  0  0  0  0  0  0  0
    0.5424    0.0166   -1.5433 C   0  0  0  0  0  0  0  0  0  0  0  0
    0.5807    0.7078   -0.3428 C   0  0  0  0  0  0  0  0  0  0  0  0
    1.8248    1.4199    0.0508 N   0  0  0  0  0  0  0  0  0  0  0  0
    2.7818    1.3635   -0.7145 O   0  0  0  0  0  0  0  0  0  0  0  0
    1.8161    2.0236    1.1245 O   0  0  0  0  0  0  0  0  0  0  0  0
   -0.5018    0.7705    0.5666 C   0  0  0  0  0  0  0  0  0  0  0  0
   -1.6699    0.1275    0.2213 C   0  0  0  0  0  0  0  0  0  0  0  0
   -2.8854    2.7549    0.0450 H   0  0  0  0  0  0  0  0  0  0  0  0
    1.4469    0.0039   -2.1452 H   0  0  0  0  0  0  0  0  0  0  0  0
   -0.3788    1.2900    1.5078 H   0  0  0  0  0  0  0  0  0  0  0  0
   -2.5342    0.0972    0.8774 H   0  0  0  0  0  0  0  0  0  0  0  0
   -4.9714    2.2850    0.2246 S   0  0  0  0  0  0  0  0  0  0  0  0
   -3.7033    3.2823    0.0990 O   0  0  0  0  0  0  0  0  0  0  0  0
   -6.1390    3.0931   -0.0369 O   0  0  0  0  0  0  0  0  0  0  0  0
   -4.6708    1.0454   -0.4662 O   0  0  0  0  0  0  0  0  0  0  0  0
   -4.9324    1.8991    1.8038 O   0  0  0  0  0  0  0  0  0  0  0  0
   -5.3792    2.6051    2.3026 H   0  0  0  0  0  0  0  0  0  0  0  0
  1 11  2  0  0  0  0
  2  1  1  0  0  0  0
  3  2  1  0  0  0  0
  4  5  2  0  0  0  0
  4  1  1  0  0  0  0
  5  6  1  0  0  0  0
  6  7  1  0  0  0  0
  6 10  2  0  0  0  0
  7  9  2  0  0  0  0
  8  7  2  0  0  0  0
 10 14  1  0  0  0  0
 11 10  1  0  0  0  0
 11 15  1  0  0  0  0
 12 17  1  0  0  0  0
 13  5  1  0  0  0  0
 16 20  1  0  0  0  0
 17 16  1  0  0  0  0
 18 16  2  0  0  0  0
 19 16  2  0  0  0  0
 20 21  1  0  0  0  0
M  RAD  3   2   2   3   3   4   2
M  END
