Coordinates from ORCA-job 4-NO2PhN2+~HSO4-_B3LYPG-6-31G_dp-CH-Scan-d09-49-n800
 OpenBabel11261919243D

 21 20  0  0  0  0  0  0  0  0999 V2000
   -1.9944   -0.0002   -0.3076 C   0  0  0  0  0  0  0  0  0  0  0  0
   -3.3470   -0.2935   -0.4710 N   0  0  0  0  0  0  0  0  0  0  0  0
   -4.4197   -0.5430   -0.6535 N   0  0  0  0  0  0  0  0  0  0  0  0
   -1.5577    1.2981   -0.6074 C   0  0  0  0  0  0  0  0  0  0  0  0
   -0.1878    1.5245   -0.4604 C   0  0  0  0  0  0  0  0  0  0  0  0
    0.6397    0.4919   -0.0297 C   0  0  0  0  0  0  0  0  0  0  0  0
    2.0928    0.7596    0.1254 N   0  0  0  0  0  0  0  0  0  0  0  0
    2.4870    1.8886   -0.1420 O   0  0  0  0  0  0  0  0  0  0  0  0
    2.7942   -0.1725    0.5095 O   0  0  0  0  0  0  0  0  0  0  0  0
    0.1791   -0.7950    0.2691 C   0  0  0  0  0  0  0  0  0  0  0  0
   -1.1718   -1.0590    0.1252 C   0  0  0  0  0  0  0  0  0  0  0  0
   -2.4426    2.2126   -0.9602 H   0  0  0  0  0  0  0  0  0  0  0  0
    0.2404    2.4974   -0.6683 H   0  0  0  0  0  0  0  0  0  0  0  0
    0.8772   -1.5520    0.6011 H   0  0  0  0  0  0  0  0  0  0  0  0
   -1.5838   -2.0384    0.3406 H   0  0  0  0  0  0  0  0  0  0  0  0
   -4.7306    2.5267   -0.2137 S   0  0  0  0  0  0  0  0  0  0  0  0
   -3.7323    3.0443   -1.2047 O   0  0  0  0  0  0  0  0  0  0  0  0
   -5.7356    1.5973   -0.7943 O   0  0  0  0  0  0  0  0  0  0  0  0
   -4.0828    1.9882    1.0010 O   0  0  0  0  0  0  0  0  0  0  0  0
   -5.5566    3.8844    0.1921 O   0  0  0  0  0  0  0  0  0  0  0  0
   -6.4144    3.5892    0.5376 H   0  0  0  0  0  0  0  0  0  0  0  0
  1 11  2  0  0  0  0
  2  1  1  0  0  0  0
  3  2  1  0  0  0  0
  4  5  2  0  0  0  0
  4  1  1  0  0  0  0
  5  6  1  0  0  0  0
  6  7  1  0  0  0  0
  6 10  2  0  0  0  0
  7  9  2  0  0  0  0
  8  7  2  0  0  0  0
 10 14  1  0  0  0  0
 11 10  1  0  0  0  0
 11 15  1  0  0  0  0
 12  4  1  0  0  0  0
 13  5  1  0  0  0  0
 16 20  1  0  0  0  0
 16 19  1  0  0  0  0
 17 16  2  0  0  0  0
 18 16  2  0  0  0  0
 20 21  1  0  0  0  0
M  RAD  3   2   2   3   3  19   2
M  END
