Coordinates from ORCA-job 4-NO2PhN2+~HSO4-_B3LYPG-6-31G_dp-CH-Scan-d09-49-n800
 OpenBabel11261919243D

 21 20  0  0  0  0  0  0  0  0999 V2000
   -1.8243   -0.3622   -0.1368 C   0  0  0  0  0  0  0  0  0  0  0  0
   -3.1338   -0.8491   -0.2040 N   0  0  0  0  0  0  0  0  0  0  0  0
   -4.1891   -1.1999   -0.2737 N   0  0  0  0  0  0  0  0  0  0  0  0
   -1.6754    0.9648   -0.5606 C   0  0  0  0  0  0  0  0  0  0  0  0
   -0.3163    1.3698   -0.4668 C   0  0  0  0  0  0  0  0  0  0  0  0
    0.6754    0.5133   -0.0109 C   0  0  0  0  0  0  0  0  0  0  0  0
    2.0782    1.0018    0.0592 N   0  0  0  0  0  0  0  0  0  0  0  0
    2.2958    2.1556   -0.2954 O   0  0  0  0  0  0  0  0  0  0  0  0
    2.9288    0.2153    0.4725 O   0  0  0  0  0  0  0  0  0  0  0  0
    0.4391   -0.8138    0.3986 C   0  0  0  0  0  0  0  0  0  0  0  0
   -0.8537   -1.2826    0.3384 C   0  0  0  0  0  0  0  0  0  0  0  0
   -3.2848    2.2858   -1.2119 H   0  0  0  0  0  0  0  0  0  0  0  0
   -0.0216    2.3734   -0.7552 H   0  0  0  0  0  0  0  0  0  0  0  0
    1.2611   -1.4256    0.7448 H   0  0  0  0  0  0  0  0  0  0  0  0
   -1.1105   -2.2936    0.6386 H   0  0  0  0  0  0  0  0  0  0  0  0
   -5.2648    2.6694   -0.4681 S   0  0  0  0  0  0  0  0  0  0  0  0
   -4.0497    2.8730   -1.4782 O   0  0  0  0  0  0  0  0  0  0  0  0
   -6.4245    3.2902   -1.0758 O   0  0  0  0  0  0  0  0  0  0  0  0
   -5.2757    1.3027    0.0271 O   0  0  0  0  0  0  0  0  0  0  0  0
   -4.8190    3.5717    0.8162 O   0  0  0  0  0  0  0  0  0  0  0  0
   -5.0819    4.4891    0.6307 H   0  0  0  0  0  0  0  0  0  0  0  0
  1 11  2  0  0  0  0
  2  1  1  0  0  0  0
  3  2  1  0  0  0  0
  4  5  2  0  0  0  0
  4  1  1  0  0  0  0
  5  6  1  0  0  0  0
  6  7  1  0  0  0  0
  6 10  2  0  0  0  0
  7  9  2  0  0  0  0
  8  7  2  0  0  0  0
 10 14  1  0  0  0  0
 11 10  1  0  0  0  0
 11 15  1  0  0  0  0
 13  5  1  0  0  0  0
 16 19  2  0  0  0  0
 16 20  1  0  0  0  0
 17 12  1  0  0  0  0
 17 16  1  0  0  0  0
 18 16  2  0  0  0  0
 21 20  1  0  0  0  0
M  RAD  3   2   2   3   3   4   2
M  END
