Coordinates from ORCA-job 4-NO2PhN2+~HSO4-_B3LYPG-6-31G_dp-CH-Scan-d09-49-n800
 OpenBabel11261919243D

 21 20  0  0  0  0  0  0  0  0999 V2000
   -1.6404   -0.3794   -0.0985 C   0  0  0  0  0  0  0  0  0  0  0  0
   -2.9797   -0.7947   -0.1576 N   0  0  0  0  0  0  0  0  0  0  0  0
   -4.0551   -1.0816   -0.2306 N   0  0  0  0  0  0  0  0  0  0  0  0
   -1.4404    0.9183   -0.5791 C   0  0  0  0  0  0  0  0  0  0  0  0
   -0.0581    1.2576   -0.4939 C   0  0  0  0  0  0  0  0  0  0  0  0
    0.8894    0.3751    0.0035 C   0  0  0  0  0  0  0  0  0  0  0  0
    2.3142    0.7966    0.0615 N   0  0  0  0  0  0  0  0  0  0  0  0
    2.5915    1.9234   -0.3377 O   0  0  0  0  0  0  0  0  0  0  0  0
    3.1265   -0.0130    0.5076 O   0  0  0  0  0  0  0  0  0  0  0  0
    0.5892   -0.9229    0.4690 C   0  0  0  0  0  0  0  0  0  0  0  0
   -0.7236   -1.3313    0.4226 C   0  0  0  0  0  0  0  0  0  0  0  0
   -3.7007    2.8491   -1.4680 H   0  0  0  0  0  0  0  0  0  0  0  0
    0.2902    2.2320   -0.8225 H   0  0  0  0  0  0  0  0  0  0  0  0
    1.3810   -1.5568    0.8444 H   0  0  0  0  0  0  0  0  0  0  0  0
   -1.0309   -2.3156    0.7632 H   0  0  0  0  0  0  0  0  0  0  0  0
   -5.6157    2.7872   -0.5126 S   0  0  0  0  0  0  0  0  0  0  0  0
   -4.5475    3.3162   -1.5997 O   0  0  0  0  0  0  0  0  0  0  0  0
   -6.9052    3.2617   -0.9654 O   0  0  0  0  0  0  0  0  0  0  0  0
   -5.3382    1.4011   -0.1929 O   0  0  0  0  0  0  0  0  0  0  0  0
   -5.1913    3.6231    0.8169 O   0  0  0  0  0  0  0  0  0  0  0  0
   -5.6020    4.5027    0.7587 H   0  0  0  0  0  0  0  0  0  0  0  0
  1 11  2  0  0  0  0
  2  1  1  0  0  0  0
  3  2  1  0  0  0  0
  4  5  2  0  0  0  0
  4  1  1  0  0  0  0
  5  6  1  0  0  0  0
  6  7  1  0  0  0  0
  6 10  2  0  0  0  0
  7  9  2  0  0  0  0
  8  7  2  0  0  0  0
 10 14  1  0  0  0  0
 11 10  1  0  0  0  0
 11 15  1  0  0  0  0
 13  5  1  0  0  0  0
 16 19  2  0  0  0  0
 16 20  1  0  0  0  0
 17 12  1  0  0  0  0
 17 16  1  0  0  0  0
 18 16  2  0  0  0  0
 21 20  1  0  0  0  0
M  RAD  3   2   2   3   3   4   2
M  END
