Coordinates from ORCA-job 4-NO2PhN2+~HSO4-_B3LYPG-6-31G_dp-CH-Scan-d09-49-n800
 OpenBabel11261919243D

 21 20  0  0  0  0  0  0  0  0999 V2000
   -1.6491   -0.5152   -1.0445 C   0  0  0  0  0  0  0  0  0  0  0  0
   -2.8474   -1.1289   -1.4633 N   0  0  0  0  0  0  0  0  0  0  0  0
   -3.7478   -1.6420   -1.8758 N   0  0  0  0  0  0  0  0  0  0  0  0
   -0.6415   -0.6511   -1.9967 C   0  0  0  0  0  0  0  0  0  0  0  0
    0.5381    0.0196   -1.5425 C   0  0  0  0  0  0  0  0  0  0  0  0
    0.5757    0.7114   -0.3423 C   0  0  0  0  0  0  0  0  0  0  0  0
    1.8187    1.4259    0.0504 N   0  0  0  0  0  0  0  0  0  0  0  0
    2.7739    1.3745   -0.7174 O   0  0  0  0  0  0  0  0  0  0  0  0
    1.8108    2.0262    1.1260 O   0  0  0  0  0  0  0  0  0  0  0  0
   -0.5061    0.7716    0.5681 C   0  0  0  0  0  0  0  0  0  0  0  0
   -1.6733    0.1262    0.2236 C   0  0  0  0  0  0  0  0  0  0  0  0
   -2.8734    2.7386    0.0481 H   0  0  0  0  0  0  0  0  0  0  0  0
    1.4426    0.0078   -2.1445 H   0  0  0  0  0  0  0  0  0  0  0  0
   -0.3830    1.2905    1.5096 H   0  0  0  0  0  0  0  0  0  0  0  0
   -2.5365    0.0930    0.8810 H   0  0  0  0  0  0  0  0  0  0  0  0
   -4.9635    2.2843    0.2214 S   0  0  0  0  0  0  0  0  0  0  0  0
   -3.6877    3.2720    0.0996 O   0  0  0  0  0  0  0  0  0  0  0  0
   -6.1245    3.1018   -0.0405 O   0  0  0  0  0  0  0  0  0  0  0  0
   -4.6720    1.0433   -0.4709 O   0  0  0  0  0  0  0  0  0  0  0  0
   -4.9294    1.8955    1.8001 O   0  0  0  0  0  0  0  0  0  0  0  0
   -5.3713    2.6042    2.2995 H   0  0  0  0  0  0  0  0  0  0  0  0
  1 11  2  0  0  0  0
  2  1  1  0  0  0  0
  3  2  1  0  0  0  0
  4  5  2  0  0  0  0
  4  1  1  0  0  0  0
  5  6  1  0  0  0  0
  6  7  1  0  0  0  0
  6 10  2  0  0  0  0
  7  9  2  0  0  0  0
  8  7  2  0  0  0  0
 10 14  1  0  0  0  0
 11 10  1  0  0  0  0
 11 15  1  0  0  0  0
 12 17  1  0  0  0  0
 13  5  1  0  0  0  0
 16 20  1  0  0  0  0
 17 16  1  0  0  0  0
 18 16  2  0  0  0  0
 19 16  2  0  0  0  0
 20 21  1  0  0  0  0
M  RAD  3   2   2   3   3   4   2
M  END
