Coordinates from ORCA-job 4-NO2PhN2+~HSO4-_B3LYPG-6-31G_dp-CH-Scan-d09-49-n800
 OpenBabel11261919243D

 21 20  0  0  0  0  0  0  0  0999 V2000
   -1.6542   -0.4795   -0.5577 C   0  0  0  0  0  0  0  0  0  0  0  0
   -2.9219   -0.9803   -0.9060 N   0  0  0  0  0  0  0  0  0  0  0  0
   -3.9259   -1.3251   -1.2499 N   0  0  0  0  0  0  0  0  0  0  0  0
   -1.2804    0.5963   -1.3629 C   0  0  0  0  0  0  0  0  0  0  0  0
    0.0131    1.0570   -0.9721 C   0  0  0  0  0  0  0  0  0  0  0  0
    0.7202    0.4727    0.0682 C   0  0  0  0  0  0  0  0  0  0  0  0
    2.0587    1.0098    0.4287 N   0  0  0  0  0  0  0  0  0  0  0  0
    2.4736    1.9784   -0.2014 O   0  0  0  0  0  0  0  0  0  0  0  0
    2.6704    0.4492    1.3379 O   0  0  0  0  0  0  0  0  0  0  0  0
    0.2489   -0.6221    0.8264 C   0  0  0  0  0  0  0  0  0  0  0  0
   -0.9889   -1.1332    0.5120 C   0  0  0  0  0  0  0  0  0  0  0  0
   -4.5213    2.9878   -2.0968 H   0  0  0  0  0  0  0  0  0  0  0  0
    0.4796    1.8918   -1.4874 H   0  0  0  0  0  0  0  0  0  0  0  0
    0.8594   -1.0271    1.6224 H   0  0  0  0  0  0  0  0  0  0  0  0
   -1.4181   -1.9745    1.0483 H   0  0  0  0  0  0  0  0  0  0  0  0
   -5.2990    2.6500   -0.1256 S   0  0  0  0  0  0  0  0  0  0  0  0
   -5.2346    3.3859   -1.5682 O   0  0  0  0  0  0  0  0  0  0  0  0
   -6.5509    3.0681    0.4642 O   0  0  0  0  0  0  0  0  0  0  0  0
   -4.9010    1.2656   -0.2773 O   0  0  0  0  0  0  0  0  0  0  0  0
   -4.0767    3.3636    0.6700 O   0  0  0  0  0  0  0  0  0  0  0  0
   -4.3977    4.2143    1.0159 H   0  0  0  0  0  0  0  0  0  0  0  0
  1 11  2  0  0  0  0
  2  1  1  0  0  0  0
  3  2  1  0  0  0  0
  4  5  2  0  0  0  0
  4  1  1  0  0  0  0
  5  6  1  0  0  0  0
  6  7  1  0  0  0  0
  6 10  2  0  0  0  0
  7  9  2  0  0  0  0
  8  7  2  0  0  0  0
 10 14  1  0  0  0  0
 11 10  1  0  0  0  0
 11 15  1  0  0  0  0
 12 17  1  0  0  0  0
 13  5  1  0  0  0  0
 16 18  2  0  0  0  0
 16 20  1  0  0  0  0
 17 16  1  0  0  0  0
 19 16  2  0  0  0  0
 20 21  1  0  0  0  0
M  RAD  3   2   2   3   3   4   2
M  END
