Coordinates from ORCA-job 4-NO2PhN2+~HSO4-_B3LYPG-6-31G_dp-CH-Scan-d09-49-n800
 OpenBabel11261919243D

 21 20  0  0  0  0  0  0  0  0999 V2000
   -1.6915   -0.3726   -0.1050 C   0  0  0  0  0  0  0  0  0  0  0  0
   -3.0226   -0.8087   -0.1654 N   0  0  0  0  0  0  0  0  0  0  0  0
   -4.0921   -1.1158   -0.2382 N   0  0  0  0  0  0  0  0  0  0  0  0
   -1.5062    0.9347   -0.5678 C   0  0  0  0  0  0  0  0  0  0  0  0
   -0.1296    1.2916   -0.4816 C   0  0  0  0  0  0  0  0  0  0  0  0
    0.8309    0.4146    0.0006 C   0  0  0  0  0  0  0  0  0  0  0  0
    2.2503    0.8541    0.0600 N   0  0  0  0  0  0  0  0  0  0  0  0
    2.5127    1.9853   -0.3362 O   0  0  0  0  0  0  0  0  0  0  0  0
    3.0749    0.0464    0.4861 O   0  0  0  0  0  0  0  0  0  0  0  0
    0.5487   -0.8928    0.4488 C   0  0  0  0  0  0  0  0  0  0  0  0
   -0.7590   -1.3176    0.4002 C   0  0  0  0  0  0  0  0  0  0  0  0
   -3.5746    2.6868   -1.3889 H   0  0  0  0  0  0  0  0  0  0  0  0
    0.2041    2.2751   -0.7975 H   0  0  0  0  0  0  0  0  0  0  0  0
    1.3493   -1.5217    0.8138 H   0  0  0  0  0  0  0  0  0  0  0  0
   -1.0522   -2.3102    0.7286 H   0  0  0  0  0  0  0  0  0  0  0  0
   -5.5230    2.7549   -0.5034 S   0  0  0  0  0  0  0  0  0  0  0  0
   -4.3944    3.1927   -1.5636 O   0  0  0  0  0  0  0  0  0  0  0  0
   -6.7711    3.2835   -1.0107 O   0  0  0  0  0  0  0  0  0  0  0  0
   -5.3360    1.3650   -0.1349 O   0  0  0  0  0  0  0  0  0  0  0  0
   -5.1007    3.6036    0.8197 O   0  0  0  0  0  0  0  0  0  0  0  0
   -5.4647    4.5004    0.7245 H   0  0  0  0  0  0  0  0  0  0  0  0
  1 11  2  0  0  0  0
  2  1  1  0  0  0  0
  3  2  1  0  0  0  0
  4  5  2  0  0  0  0
  4  1  1  0  0  0  0
  5  6  1  0  0  0  0
  6  7  1  0  0  0  0
  6 10  2  0  0  0  0
  7  9  2  0  0  0  0
  8  7  2  0  0  0  0
 10 14  1  0  0  0  0
 11 10  1  0  0  0  0
 11 15  1  0  0  0  0
 13  5  1  0  0  0  0
 16 19  2  0  0  0  0
 16 20  1  0  0  0  0
 17 12  1  0  0  0  0
 17 16  1  0  0  0  0
 18 16  2  0  0  0  0
 21 20  1  0  0  0  0
M  RAD  3   2   2   3   3   4   2
M  END
