Coordinates from ORCA-job 4-NO2PhN2+~HSO4-_B3LYPG-6-31G_dp-CH-Scan-d09-49-n800
 OpenBabel11261919243D

 21 20  0  0  0  0  0  0  0  0999 V2000
   -1.8098   -0.3637   -0.1345 C   0  0  0  0  0  0  0  0  0  0  0  0
   -3.1216   -0.8453   -0.2018 N   0  0  0  0  0  0  0  0  0  0  0  0
   -4.1783   -1.1919   -0.2722 N   0  0  0  0  0  0  0  0  0  0  0  0
   -1.6572    0.9616   -0.5618 C   0  0  0  0  0  0  0  0  0  0  0  0
   -0.2962    1.3617   -0.4682 C   0  0  0  0  0  0  0  0  0  0  0  0
    0.6922    0.5028   -0.0096 C   0  0  0  0  0  0  0  0  0  0  0  0
    2.0968    0.9862    0.0599 N   0  0  0  0  0  0  0  0  0  0  0  0
    2.3188    2.1388   -0.2963 O   0  0  0  0  0  0  0  0  0  0  0  0
    2.9442    0.1983    0.4768 O   0  0  0  0  0  0  0  0  0  0  0  0
    0.4511   -0.8226    0.4033 C   0  0  0  0  0  0  0  0  0  0  0  0
   -0.8432   -1.2870    0.3438 C   0  0  0  0  0  0  0  0  0  0  0  0
   -3.3181    2.3257   -1.2331 H   0  0  0  0  0  0  0  0  0  0  0  0
    0.0027    2.3635   -0.7588 H   0  0  0  0  0  0  0  0  0  0  0  0
    1.2708   -1.4363    0.7514 H   0  0  0  0  0  0  0  0  0  0  0  0
   -1.1038   -2.2964    0.6464 H   0  0  0  0  0  0  0  0  0  0  0  0
   -5.2939    2.6784   -0.4692 S   0  0  0  0  0  0  0  0  0  0  0  0
   -4.0883    2.9030   -1.4900 O   0  0  0  0  0  0  0  0  0  0  0  0
   -6.4637    3.2901   -1.0660 O   0  0  0  0  0  0  0  0  0  0  0  0
   -5.2839    1.3090    0.0167 O   0  0  0  0  0  0  0  0  0  0  0  0
   -4.8466    3.5784    0.8153 O   0  0  0  0  0  0  0  0  0  0  0  0
   -5.1189    4.4945    0.6369 H   0  0  0  0  0  0  0  0  0  0  0  0
  1 11  2  0  0  0  0
  2  1  1  0  0  0  0
  3  2  1  0  0  0  0
  4  5  2  0  0  0  0
  4  1  1  0  0  0  0
  5  6  1  0  0  0  0
  6  7  1  0  0  0  0
  6 10  2  0  0  0  0
  7  9  2  0  0  0  0
  8  7  2  0  0  0  0
 10 14  1  0  0  0  0
 11 10  1  0  0  0  0
 11 15  1  0  0  0  0
 13  5  1  0  0  0  0
 16 19  2  0  0  0  0
 16 20  1  0  0  0  0
 17 12  1  0  0  0  0
 17 16  1  0  0  0  0
 18 16  2  0  0  0  0
 21 20  1  0  0  0  0
M  RAD  3   2   2   3   3   4   2
M  END
