Coordinates from ORCA-job 4-NO2PhN2+~HSO4-_B3LYPG-6-31G_dp-CH-Scan-d09-49-n800
 OpenBabel11261919243D

 21 20  0  0  0  0  0  0  0  0999 V2000
   -1.9448   -0.3072   -0.1860 C   0  0  0  0  0  0  0  0  0  0  0  0
   -3.2491   -0.7914   -0.2719 N   0  0  0  0  0  0  0  0  0  0  0  0
   -4.3041   -1.1363   -0.3455 N   0  0  0  0  0  0  0  0  0  0  0  0
   -1.7576    1.0338   -0.5476 C   0  0  0  0  0  0  0  0  0  0  0  0
   -0.4152    1.4482   -0.4479 C   0  0  0  0  0  0  0  0  0  0  0  0
    0.5750    0.5682   -0.0308 C   0  0  0  0  0  0  0  0  0  0  0  0
    1.9783    1.0521    0.0549 N   0  0  0  0  0  0  0  0  0  0  0  0
    2.1920    2.2173   -0.2591 O   0  0  0  0  0  0  0  0  0  0  0  0
    2.8254    0.2473    0.4352 O   0  0  0  0  0  0  0  0  0  0  0  0
    0.3309   -0.7691    0.3203 C   0  0  0  0  0  0  0  0  0  0  0  0
   -0.9659   -1.2340    0.2428 C   0  0  0  0  0  0  0  0  0  0  0  0
   -2.8358    1.9238   -0.9348 H   0  0  0  0  0  0  0  0  0  0  0  0
   -0.1366    2.4663   -0.6956 H   0  0  0  0  0  0  0  0  0  0  0  0
    1.1497   -1.4000    0.6396 H   0  0  0  0  0  0  0  0  0  0  0  0
   -1.2217   -2.2557    0.5022 H   0  0  0  0  0  0  0  0  0  0  0  0
   -4.9820    2.5705   -0.3875 S   0  0  0  0  0  0  0  0  0  0  0  0
   -3.7236    2.6887   -1.2680 O   0  0  0  0  0  0  0  0  0  0  0  0
   -6.1874    2.8943   -1.1418 O   0  0  0  0  0  0  0  0  0  0  0  0
   -4.9276    1.3318    0.4015 O   0  0  0  0  0  0  0  0  0  0  0  0
   -4.7954    3.7605    0.7327 O   0  0  0  0  0  0  0  0  0  0  0  0
   -5.2512    4.5397    0.3760 H   0  0  0  0  0  0  0  0  0  0  0  0
  1 11  2  0  0  0  0
  2  1  1  0  0  0  0
  3  2  1  0  0  0  0
  4  5  2  0  0  0  0
  4  1  1  0  0  0  0
  5  6  1  0  0  0  0
  6  7  1  0  0  0  0
  6 10  2  0  0  0  0
  7  9  2  0  0  0  0
  8  7  2  0  0  0  0
 10 14  1  0  0  0  0
 11 10  1  0  0  0  0
 11 15  1  0  0  0  0
 13  5  1  0  0  0  0
 16 19  2  0  0  0  0
 16 20  1  0  0  0  0
 17 12  1  0  0  0  0
 17 16  1  0  0  0  0
 18 16  2  0  0  0  0
 21 20  1  0  0  0  0
M  RAD  3   2   2   3   3   4   2
M  END
