Coordinates from ORCA-job 4-NO2PhN2+~HSO4-_B3LYPG-6-31G_dp-CH-Scan-d09-49-n800
 OpenBabel11261919243D

 21 20  0  0  0  0  0  0  0  0999 V2000
   -1.6356   -0.5103   -1.0500 C   0  0  0  0  0  0  0  0  0  0  0  0
   -2.8363   -1.1201   -1.4675 N   0  0  0  0  0  0  0  0  0  0  0  0
   -3.7394   -1.6298   -1.8785 N   0  0  0  0  0  0  0  0  0  0  0  0
   -0.6272   -0.6565   -2.0000 C   0  0  0  0  0  0  0  0  0  0  0  0
    0.5564    0.0063   -1.5450 C   0  0  0  0  0  0  0  0  0  0  0  0
    0.5986    0.6952   -0.3431 C   0  0  0  0  0  0  0  0  0  0  0  0
    1.8480    1.3966    0.0531 N   0  0  0  0  0  0  0  0  0  0  0  0
    2.8088    1.3251   -0.7061 O   0  0  0  0  0  0  0  0  0  0  0  0
    1.8394    2.0081    1.1224 O   0  0  0  0  0  0  0  0  0  0  0  0
   -0.4852    0.7679    0.5636 C   0  0  0  0  0  0  0  0  0  0  0  0
   -1.6579    0.1349    0.2161 C   0  0  0  0  0  0  0  0  0  0  0  0
   -2.9320    2.8163    0.0267 H   0  0  0  0  0  0  0  0  0  0  0  0
    1.4610   -0.0107   -2.1467 H   0  0  0  0  0  0  0  0  0  0  0  0
   -0.3608    1.2888    1.5038 H   0  0  0  0  0  0  0  0  0  0  0  0
   -2.5252    0.1154    0.8684 H   0  0  0  0  0  0  0  0  0  0  0  0
   -5.0002    2.2850    0.2326 S   0  0  0  0  0  0  0  0  0  0  0  0
   -3.7637    3.3199    0.0911 O   0  0  0  0  0  0  0  0  0  0  0  0
   -6.1940    3.0564   -0.0213 O   0  0  0  0  0  0  0  0  0  0  0  0
   -4.6676    1.0528   -0.4566 O   0  0  0  0  0  0  0  0  0  0  0  0
   -4.9352    1.9067    1.8125 O   0  0  0  0  0  0  0  0  0  0  0  0
   -5.3987    2.6008    2.3130 H   0  0  0  0  0  0  0  0  0  0  0  0
  1 11  2  0  0  0  0
  2  1  1  0  0  0  0
  3  2  1  0  0  0  0
  4  5  2  0  0  0  0
  4  1  1  0  0  0  0
  5  6  1  0  0  0  0
  6  7  1  0  0  0  0
  6 10  2  0  0  0  0
  7  9  2  0  0  0  0
  8  7  2  0  0  0  0
 10 14  1  0  0  0  0
 11 10  1  0  0  0  0
 11 15  1  0  0  0  0
 12 17  1  0  0  0  0
 13  5  1  0  0  0  0
 16 20  1  0  0  0  0
 17 16  1  0  0  0  0
 18 16  2  0  0  0  0
 19 16  2  0  0  0  0
 20 21  1  0  0  0  0
M  RAD  3   2   2   3   3   4   2
M  END
