Coordinates from ORCA-job 4-NO2PhN2+~HSO4-_B3LYPG-6-31G_dp-CH-Scan-d09-49-n800
 OpenBabel11261919243D

 21 20  0  0  0  0  0  0  0  0999 V2000
   -1.6593   -0.4787   -0.5425 C   0  0  0  0  0  0  0  0  0  0  0  0
   -2.9286   -0.9803   -0.8829 N   0  0  0  0  0  0  0  0  0  0  0  0
   -3.9349   -1.3256   -1.2196 N   0  0  0  0  0  0  0  0  0  0  0  0
   -1.3008    0.6134   -1.3331 C   0  0  0  0  0  0  0  0  0  0  0  0
   -0.0043    1.0729   -0.9509 C   0  0  0  0  0  0  0  0  0  0  0  0
    0.7190    0.4735    0.0694 C   0  0  0  0  0  0  0  0  0  0  0  0
    2.0597    1.0104    0.4219 N   0  0  0  0  0  0  0  0  0  0  0  0
    2.4652    1.9871   -0.2017 O   0  0  0  0  0  0  0  0  0  0  0  0
    2.6851    0.4376    1.3140 O   0  0  0  0  0  0  0  0  0  0  0  0
    0.2626   -0.6367    0.8141 C   0  0  0  0  0  0  0  0  0  0  0  0
   -0.9769   -1.1480    0.5066 C   0  0  0  0  0  0  0  0  0  0  0  0
   -4.4826    2.9732   -2.0947 H   0  0  0  0  0  0  0  0  0  0  0  0
    0.4516    1.9190   -1.4571 H   0  0  0  0  0  0  0  0  0  0  0  0
    0.8852   -1.0530    1.5947 H   0  0  0  0  0  0  0  0  0  0  0  0
   -1.3951   -2.0009    1.0331 H   0  0  0  0  0  0  0  0  0  0  0  0
   -5.3040    2.6568   -0.1375 S   0  0  0  0  0  0  0  0  0  0  0  0
   -5.2052    3.3790   -1.5848 O   0  0  0  0  0  0  0  0  0  0  0  0
   -6.5638    3.0905    0.4238 O   0  0  0  0  0  0  0  0  0  0  0  0
   -4.9149    1.2678   -0.2685 O   0  0  0  0  0  0  0  0  0  0  0  0
   -4.0918    3.3677    0.6760 O   0  0  0  0  0  0  0  0  0  0  0  0
   -4.4131    4.2235    1.0087 H   0  0  0  0  0  0  0  0  0  0  0  0
  1 11  2  0  0  0  0
  2  1  1  0  0  0  0
  3  2  1  0  0  0  0
  4  5  2  0  0  0  0
  4  1  1  0  0  0  0
  5  6  1  0  0  0  0
  6  7  1  0  0  0  0
  6 10  2  0  0  0  0
  7  9  2  0  0  0  0
  8  7  2  0  0  0  0
 10 14  1  0  0  0  0
 11 10  1  0  0  0  0
 11 15  1  0  0  0  0
 12 17  1  0  0  0  0
 13  5  1  0  0  0  0
 16 18  2  0  0  0  0
 16 20  1  0  0  0  0
 17 16  1  0  0  0  0
 19 16  2  0  0  0  0
 20 21  1  0  0  0  0
M  RAD  3   2   2   3   3   4   2
M  END
