Coordinates from ORCA-job 4-NO2PhN2+~HSO4-_B3LYPG-6-31G_dp-CH-Scan-d09-49-n800
 OpenBabel11261919243D

 21 20  0  0  0  0  0  0  0  0999 V2000
   -1.6391   -0.5124   -1.0482 C   0  0  0  0  0  0  0  0  0  0  0  0
   -2.8391   -1.1241   -1.4655 N   0  0  0  0  0  0  0  0  0  0  0  0
   -3.7416   -1.6341   -1.8772 N   0  0  0  0  0  0  0  0  0  0  0  0
   -0.6311   -0.6562   -1.9985 C   0  0  0  0  0  0  0  0  0  0  0  0
    0.5512    0.0096   -1.5447 C   0  0  0  0  0  0  0  0  0  0  0  0
    0.5923    0.7000   -0.3437 C   0  0  0  0  0  0  0  0  0  0  0  0
    1.8398    1.4056    0.0510 N   0  0  0  0  0  0  0  0  0  0  0  0
    2.7992    1.3390   -0.7104 O   0  0  0  0  0  0  0  0  0  0  0  0
    1.8312    2.0149    1.1215 O   0  0  0  0  0  0  0  0  0  0  0  0
   -0.4909    0.7694    0.5642 C   0  0  0  0  0  0  0  0  0  0  0  0
   -1.6619    0.1325    0.2179 C   0  0  0  0  0  0  0  0  0  0  0  0
   -2.9131    2.7922    0.0384 H   0  0  0  0  0  0  0  0  0  0  0  0
    1.4556   -0.0057   -2.1468 H   0  0  0  0  0  0  0  0  0  0  0  0
   -0.3670    1.2904    1.5044 H   0  0  0  0  0  0  0  0  0  0  0  0
   -2.5282    0.1095    0.8717 H   0  0  0  0  0  0  0  0  0  0  0  0
   -4.9892    2.2857    0.2295 S   0  0  0  0  0  0  0  0  0  0  0  0
   -3.7393    3.3055    0.0985 O   0  0  0  0  0  0  0  0  0  0  0  0
   -6.1719    3.0724   -0.0297 O   0  0  0  0  0  0  0  0  0  0  0  0
   -4.6676    1.0512   -0.4608 O   0  0  0  0  0  0  0  0  0  0  0  0
   -4.9389    1.9026    1.8089 O   0  0  0  0  0  0  0  0  0  0  0  0
   -5.3969    2.6010    2.3082 H   0  0  0  0  0  0  0  0  0  0  0  0
  1 11  2  0  0  0  0
  2  1  1  0  0  0  0
  3  2  1  0  0  0  0
  4  5  2  0  0  0  0
  4  1  1  0  0  0  0
  5  6  1  0  0  0  0
  6  7  1  0  0  0  0
  6 10  2  0  0  0  0
  7  9  2  0  0  0  0
  8  7  2  0  0  0  0
 10 14  1  0  0  0  0
 11 10  1  0  0  0  0
 11 15  1  0  0  0  0
 12 17  1  0  0  0  0
 13  5  1  0  0  0  0
 16 20  1  0  0  0  0
 17 16  1  0  0  0  0
 18 16  2  0  0  0  0
 19 16  2  0  0  0  0
 20 21  1  0  0  0  0
M  RAD  3   2   2   3   3   4   2
M  END
