Coordinates from ORCA-job 4-NO2PhN2+~HSO4-_B3LYPG-6-31G_dp-CH-Scan-d09-49-n800
 OpenBabel11261919243D

 21 20  0  0  0  0  0  0  0  0999 V2000
   -1.8222   -0.3624   -0.1365 C   0  0  0  0  0  0  0  0  0  0  0  0
   -3.1320   -0.8486   -0.2040 N   0  0  0  0  0  0  0  0  0  0  0  0
   -4.1875   -1.1988   -0.2740 N   0  0  0  0  0  0  0  0  0  0  0  0
   -1.6728    0.9644   -0.5608 C   0  0  0  0  0  0  0  0  0  0  0  0
   -0.3135    1.3688   -0.4667 C   0  0  0  0  0  0  0  0  0  0  0  0
    0.6777    0.5119   -0.0103 C   0  0  0  0  0  0  0  0  0  0  0  0
    2.0807    0.9998    0.0600 N   0  0  0  0  0  0  0  0  0  0  0  0
    2.2992    2.1529   -0.2965 O   0  0  0  0  0  0  0  0  0  0  0  0
    2.9311    0.2126    0.4722 O   0  0  0  0  0  0  0  0  0  0  0  0
    0.4407   -0.8149    0.3996 C   0  0  0  0  0  0  0  0  0  0  0  0
   -0.8523   -1.2832    0.3393 C   0  0  0  0  0  0  0  0  0  0  0  0
   -3.2895    2.2916   -1.2150 H   0  0  0  0  0  0  0  0  0  0  0  0
   -0.0182    2.3722   -0.7553 H   0  0  0  0  0  0  0  0  0  0  0  0
    1.2624   -1.4269    0.7461 H   0  0  0  0  0  0  0  0  0  0  0  0
   -1.1096   -2.2940    0.6397 H   0  0  0  0  0  0  0  0  0  0  0  0
   -5.2690    2.6706   -0.4682 S   0  0  0  0  0  0  0  0  0  0  0  0
   -4.0552    2.8773   -1.4799 O   0  0  0  0  0  0  0  0  0  0  0  0
   -6.4301    3.2901   -1.0743 O   0  0  0  0  0  0  0  0  0  0  0  0
   -5.2768    1.3035    0.0255 O   0  0  0  0  0  0  0  0  0  0  0  0
   -4.8228    3.5725    0.8161 O   0  0  0  0  0  0  0  0  0  0  0  0
   -5.0870    4.4897    0.6316 H   0  0  0  0  0  0  0  0  0  0  0  0
  1 11  2  0  0  0  0
  2  1  1  0  0  0  0
  3  2  1  0  0  0  0
  4  5  2  0  0  0  0
  4  1  1  0  0  0  0
  5  6  1  0  0  0  0
  6  7  1  0  0  0  0
  6 10  2  0  0  0  0
  7  9  2  0  0  0  0
  8  7  2  0  0  0  0
 10 14  1  0  0  0  0
 11 10  1  0  0  0  0
 11 15  1  0  0  0  0
 13  5  1  0  0  0  0
 16 19  2  0  0  0  0
 16 20  1  0  0  0  0
 17 12  1  0  0  0  0
 17 16  1  0  0  0  0
 18 16  2  0  0  0  0
 21 20  1  0  0  0  0
M  RAD  3   2   2   3   3   4   2
M  END
