Coordinates from ORCA-job 4-NO2PhN2+~HSO4-_B3LYPG-6-31G_dp-CH-Scan-d09-49-n800
 OpenBabel11261919243D

 21 20  0  0  0  0  0  0  0  0999 V2000
   -1.9909   -0.0097   -0.3037 C   0  0  0  0  0  0  0  0  0  0  0  0
   -3.3432   -0.3076   -0.4624 N   0  0  0  0  0  0  0  0  0  0  0  0
   -4.4159   -0.5599   -0.6373 N   0  0  0  0  0  0  0  0  0  0  0  0
   -1.5655    1.2936   -0.5983 C   0  0  0  0  0  0  0  0  0  0  0  0
   -0.1948    1.5233   -0.4530 C   0  0  0  0  0  0  0  0  0  0  0  0
    0.6391    0.4923   -0.0318 C   0  0  0  0  0  0  0  0  0  0  0  0
    2.0917    0.7657    0.1204 N   0  0  0  0  0  0  0  0  0  0  0  0
    2.4801    1.8982   -0.1408 O   0  0  0  0  0  0  0  0  0  0  0  0
    2.7986   -0.1656    0.4965 O   0  0  0  0  0  0  0  0  0  0  0  0
    0.1864   -0.7994    0.2607 C   0  0  0  0  0  0  0  0  0  0  0  0
   -1.1633   -1.0690    0.1205 C   0  0  0  0  0  0  0  0  0  0  0  0
   -2.4699    2.2139   -0.9429 H   0  0  0  0  0  0  0  0  0  0  0  0
    0.2293    2.4992   -0.6558 H   0  0  0  0  0  0  0  0  0  0  0  0
    0.8896   -1.5547    0.5856 H   0  0  0  0  0  0  0  0  0  0  0  0
   -1.5703   -2.0514    0.3317 H   0  0  0  0  0  0  0  0  0  0  0  0
   -4.7335    2.5265   -0.2054 S   0  0  0  0  0  0  0  0  0  0  0  0
   -3.7093    3.0284   -1.1845 O   0  0  0  0  0  0  0  0  0  0  0  0
   -5.7443    1.6182   -0.8032 O   0  0  0  0  0  0  0  0  0  0  0  0
   -4.1073    1.9805    1.0159 O   0  0  0  0  0  0  0  0  0  0  0  0
   -5.5370    3.9016    0.1857 O   0  0  0  0  0  0  0  0  0  0  0  0
   -6.4163    3.6251    0.4908 H   0  0  0  0  0  0  0  0  0  0  0  0
  1 11  2  0  0  0  0
  2  1  1  0  0  0  0
  3  2  1  0  0  0  0
  4  5  2  0  0  0  0
  4  1  1  0  0  0  0
  5  6  1  0  0  0  0
  6  7  1  0  0  0  0
  6 10  2  0  0  0  0
  7  9  2  0  0  0  0
  8  7  2  0  0  0  0
 10 14  1  0  0  0  0
 11 10  1  0  0  0  0
 11 15  1  0  0  0  0
 12  4  1  0  0  0  0
 13  5  1  0  0  0  0
 16 20  1  0  0  0  0
 16 19  1  0  0  0  0
 17 16  2  0  0  0  0
 18 16  2  0  0  0  0
 20 21  1  0  0  0  0
M  RAD  3   2   2   3   3  19   2
M  END
