Coordinates from ORCA-job 4-NO2PhN2+~HSO4-_B3LYPG-6-31G_dp-CH-Scan-d09-49-n800
 OpenBabel11261919243D

 21 20  0  0  0  0  0  0  0  0999 V2000
   -2.0149    0.0549   -0.3465 C   0  0  0  0  0  0  0  0  0  0  0  0
   -3.3661   -0.2149   -0.5401 N   0  0  0  0  0  0  0  0  0  0  0  0
   -4.4358   -0.4642   -0.7614 N   0  0  0  0  0  0  0  0  0  0  0  0
   -1.5162    1.3231   -0.6817 C   0  0  0  0  0  0  0  0  0  0  0  0
   -0.1497    1.5271   -0.5140 C   0  0  0  0  0  0  0  0  0  0  0  0
    0.6376    0.4934   -0.0123 C   0  0  0  0  0  0  0  0  0  0  0  0
    2.0905    0.7315    0.1709 N   0  0  0  0  0  0  0  0  0  0  0  0
    2.5216    1.8348   -0.1442 O   0  0  0  0  0  0  0  0  0  0  0  0
    2.7552   -0.1963    0.6237 O   0  0  0  0  0  0  0  0  0  0  0  0
    0.1298   -0.7614    0.3280 C   0  0  0  0  0  0  0  0  0  0  0  0
   -1.2255   -0.9955    0.1515 C   0  0  0  0  0  0  0  0  0  0  0  0
   -2.2201    2.1420   -1.0633 H   0  0  0  0  0  0  0  0  0  0  0  0
    0.3048    2.4797   -0.7548 H   0  0  0  0  0  0  0  0  0  0  0  0
    0.7941   -1.5231    0.7143 H   0  0  0  0  0  0  0  0  0  0  0  0
   -1.6688   -1.9541    0.3951 H   0  0  0  0  0  0  0  0  0  0  0  0
   -4.7378    2.5386   -0.2863 S   0  0  0  0  0  0  0  0  0  0  0  0
   -3.9454    3.1709   -1.3573 O   0  0  0  0  0  0  0  0  0  0  0  0
   -5.7166    1.5031   -0.7516 O   0  0  0  0  0  0  0  0  0  0  0  0
   -3.9132    2.0180    0.8360 O   0  0  0  0  0  0  0  0  0  0  0  0
   -5.6521    3.7698    0.2997 O   0  0  0  0  0  0  0  0  0  0  0  0
   -6.3180    3.3715    0.8833 H   0  0  0  0  0  0  0  0  0  0  0  0
  1 11  2  0  0  0  0
  2  1  1  0  0  0  0
  3  2  1  0  0  0  0
  4  5  2  0  0  0  0
  4  1  1  0  0  0  0
  5  6  1  0  0  0  0
  6  7  1  0  0  0  0
  6 10  2  0  0  0  0
  7  9  2  0  0  0  0
  8  7  2  0  0  0  0
 10 14  1  0  0  0  0
 11 10  1  0  0  0  0
 11 15  1  0  0  0  0
 12  4  1  0  0  0  0
 13  5  1  0  0  0  0
 16 20  1  0  0  0  0
 16 19  1  0  0  0  0
 17 16  2  0  0  0  0
 18 16  2  0  0  0  0
 20 21  1  0  0  0  0
M  RAD  3   2   2   3   3  19   2
M  END
