Coordinates from ORCA-job 4-NO2PhN2+~HSO4-_B3LYPG-6-31G_dp-CH-Scan-d09-49-n800
 OpenBabel11261919243D

 21 20  0  0  0  0  0  0  0  0999 V2000
   -1.9326   -0.3233   -0.1779 C   0  0  0  0  0  0  0  0  0  0  0  0
   -3.2335   -0.8203   -0.2600 N   0  0  0  0  0  0  0  0  0  0  0  0
   -4.2834   -1.1813   -0.3348 N   0  0  0  0  0  0  0  0  0  0  0  0
   -1.7673    1.0194   -0.5454 C   0  0  0  0  0  0  0  0  0  0  0  0
   -0.4217    1.4372   -0.4460 C   0  0  0  0  0  0  0  0  0  0  0  0
    0.5759    0.5667   -0.0280 C   0  0  0  0  0  0  0  0  0  0  0  0
    1.9760    1.0606    0.0545 N   0  0  0  0  0  0  0  0  0  0  0  0
    2.1825    2.2269   -0.2612 O   0  0  0  0  0  0  0  0  0  0  0  0
    2.8303    0.2627    0.4345 O   0  0  0  0  0  0  0  0  0  0  0  0
    0.3439   -0.7727    0.3279 C   0  0  0  0  0  0  0  0  0  0  0  0
   -0.9488   -1.2462    0.2536 C   0  0  0  0  0  0  0  0  0  0  0  0
   -2.9187    1.9711   -0.9619 H   0  0  0  0  0  0  0  0  0  0  0  0
   -0.1454    2.4554   -0.6967 H   0  0  0  0  0  0  0  0  0  0  0  0
    1.1683   -1.3960    0.6474 H   0  0  0  0  0  0  0  0  0  0  0  0
   -1.1979   -2.2691    0.5156 H   0  0  0  0  0  0  0  0  0  0  0  0
   -5.0089    2.5839   -0.3967 S   0  0  0  0  0  0  0  0  0  0  0  0
   -3.7392    2.6883   -1.2860 O   0  0  0  0  0  0  0  0  0  0  0  0
   -6.1870    2.9773   -1.1561 O   0  0  0  0  0  0  0  0  0  0  0  0
   -4.9914    1.3243    0.3509 O   0  0  0  0  0  0  0  0  0  0  0  0
   -4.7734    3.7347    0.7493 O   0  0  0  0  0  0  0  0  0  0  0  0
   -5.1744    4.5496    0.4060 H   0  0  0  0  0  0  0  0  0  0  0  0
  1 11  2  0  0  0  0
  2  1  1  0  0  0  0
  3  2  1  0  0  0  0
  4  5  2  0  0  0  0
  4  1  1  0  0  0  0
  5  6  1  0  0  0  0
  6  7  1  0  0  0  0
  6 10  2  0  0  0  0
  7  9  2  0  0  0  0
  8  7  2  0  0  0  0
 10 14  1  0  0  0  0
 11 10  1  0  0  0  0
 11 15  1  0  0  0  0
 13  5  1  0  0  0  0
 16 19  2  0  0  0  0
 16 20  1  0  0  0  0
 17 12  1  0  0  0  0
 17 16  1  0  0  0  0
 18 16  2  0  0  0  0
 21 20  1  0  0  0  0
M  RAD  3   2   2   3   3   4   2
M  END
