Coordinates from ORCA-job 4-NO2PhN2+~HSO4-_B3LYPG-6-31G_dp-CH-Scan-d09-49-n800
 OpenBabel11261919243D

 21 20  0  0  0  0  0  0  0  0999 V2000
   -1.6538   -0.3776   -0.1004 C   0  0  0  0  0  0  0  0  0  0  0  0
   -2.9909   -0.7984   -0.1598 N   0  0  0  0  0  0  0  0  0  0  0  0
   -4.0647   -1.0911   -0.2333 N   0  0  0  0  0  0  0  0  0  0  0  0
   -1.4575    0.9224   -0.5772 C   0  0  0  0  0  0  0  0  0  0  0  0
   -0.0766    1.2661   -0.4919 C   0  0  0  0  0  0  0  0  0  0  0  0
    0.8742    0.3852    0.0021 C   0  0  0  0  0  0  0  0  0  0  0  0
    2.2977    0.8113    0.0602 N   0  0  0  0  0  0  0  0  0  0  0  0
    2.5709    1.9398   -0.3368 O   0  0  0  0  0  0  0  0  0  0  0  0
    3.1127    0.0033    0.5041 O   0  0  0  0  0  0  0  0  0  0  0  0
    0.5785   -0.9149    0.4640 C   0  0  0  0  0  0  0  0  0  0  0  0
   -0.7330   -1.3276    0.4172 C   0  0  0  0  0  0  0  0  0  0  0  0
   -3.6675    2.8076   -1.4482 H   0  0  0  0  0  0  0  0  0  0  0  0
    0.2681    2.2427   -0.8178 H   0  0  0  0  0  0  0  0  0  0  0  0
    1.3725   -1.5474    0.8372 H   0  0  0  0  0  0  0  0  0  0  0  0
   -1.0368   -2.3138    0.7552 H   0  0  0  0  0  0  0  0  0  0  0  0
   -5.5917    2.7787   -0.5100 S   0  0  0  0  0  0  0  0  0  0  0  0
   -4.5075    3.2850   -1.5907 O   0  0  0  0  0  0  0  0  0  0  0  0
   -6.8709    3.2682   -0.9762 O   0  0  0  0  0  0  0  0  0  0  0  0
   -5.3376    1.3908   -0.1784 O   0  0  0  0  0  0  0  0  0  0  0  0
   -5.1672    3.6170    0.8182 O   0  0  0  0  0  0  0  0  0  0  0  0
   -5.5655    4.5016    0.7510 H   0  0  0  0  0  0  0  0  0  0  0  0
  1 11  2  0  0  0  0
  2  1  1  0  0  0  0
  3  2  1  0  0  0  0
  4  5  2  0  0  0  0
  4  1  1  0  0  0  0
  5  6  1  0  0  0  0
  6  7  1  0  0  0  0
  6 10  2  0  0  0  0
  7  9  2  0  0  0  0
  8  7  2  0  0  0  0
 10 14  1  0  0  0  0
 11 10  1  0  0  0  0
 11 15  1  0  0  0  0
 13  5  1  0  0  0  0
 16 19  2  0  0  0  0
 16 20  1  0  0  0  0
 17 12  1  0  0  0  0
 17 16  1  0  0  0  0
 18 16  2  0  0  0  0
 21 20  1  0  0  0  0
M  RAD  3   2   2   3   3   4   2
M  END
