Coordinates from ORCA-job 4-NO2PhN2+~HSO4-_B3LYPG-6-31G_dp-CH-Scan-d09-49-n800
 OpenBabel11261919243D

 21 20  0  0  0  0  0  0  0  0999 V2000
   -1.6308   -0.3807   -0.0969 C   0  0  0  0  0  0  0  0  0  0  0  0
   -2.9715   -0.7922   -0.1558 N   0  0  0  0  0  0  0  0  0  0  0  0
   -4.0481   -1.0746   -0.2297 N   0  0  0  0  0  0  0  0  0  0  0  0
   -1.4283    0.9155   -0.5803 C   0  0  0  0  0  0  0  0  0  0  0  0
   -0.0451    1.2516   -0.4948 C   0  0  0  0  0  0  0  0  0  0  0  0
    0.9001    0.3680    0.0050 C   0  0  0  0  0  0  0  0  0  0  0  0
    2.3258    0.7865    0.0632 N   0  0  0  0  0  0  0  0  0  0  0  0
    2.6062    1.9114   -0.3392 O   0  0  0  0  0  0  0  0  0  0  0  0
    3.1365   -0.0251    0.5087 O   0  0  0  0  0  0  0  0  0  0  0  0
    0.5969   -0.9285    0.4728 C   0  0  0  0  0  0  0  0  0  0  0  0
   -0.7168   -1.3341    0.4266 C   0  0  0  0  0  0  0  0  0  0  0  0
   -3.7246    2.8786   -1.4823 H   0  0  0  0  0  0  0  0  0  0  0  0
    0.3058    2.2246   -0.8252 H   0  0  0  0  0  0  0  0  0  0  0  0
    1.3871   -1.5633    0.8499 H   0  0  0  0  0  0  0  0  0  0  0  0
   -1.0266   -2.3170    0.7688 H   0  0  0  0  0  0  0  0  0  0  0  0
   -5.6328    2.7933   -0.5145 S   0  0  0  0  0  0  0  0  0  0  0  0
   -4.5763    3.3382   -1.6062 O   0  0  0  0  0  0  0  0  0  0  0  0
   -6.9296    3.2571   -0.9573 O   0  0  0  0  0  0  0  0  0  0  0  0
   -5.3386    1.4089   -0.2039 O   0  0  0  0  0  0  0  0  0  0  0  0
   -5.2082    3.6275    0.8157 O   0  0  0  0  0  0  0  0  0  0  0  0
   -5.6276    4.5034    0.7643 H   0  0  0  0  0  0  0  0  0  0  0  0
  1 11  2  0  0  0  0
  2  1  1  0  0  0  0
  3  2  1  0  0  0  0
  4  5  2  0  0  0  0
  4  1  1  0  0  0  0
  5  6  1  0  0  0  0
  6  7  1  0  0  0  0
  6 10  2  0  0  0  0
  7  9  2  0  0  0  0
  8  7  2  0  0  0  0
 10 14  1  0  0  0  0
 11 10  1  0  0  0  0
 11 15  1  0  0  0  0
 13  5  1  0  0  0  0
 16 19  2  0  0  0  0
 16 20  1  0  0  0  0
 17 12  1  0  0  0  0
 17 16  1  0  0  0  0
 18 16  2  0  0  0  0
 21 20  1  0  0  0  0
M  RAD  3   2   2   3   3   4   2
M  END
