Coordinates from ORCA-job 4-NO2PhN2+~HSO4-_B3LYPG-6-31G_dp-CH-Scan-d09-49-n800
 OpenBabel11261919243D

 21 20  0  0  0  0  0  0  0  0999 V2000
   -1.5699   -0.3915   -0.1104 C   0  0  0  0  0  0  0  0  0  0  0  0
   -2.9186   -0.7800   -0.1821 N   0  0  0  0  0  0  0  0  0  0  0  0
   -4.0011   -1.0362   -0.2719 N   0  0  0  0  0  0  0  0  0  0  0  0
   -1.3456    0.8888   -0.6233 C   0  0  0  0  0  0  0  0  0  0  0  0
    0.0420    1.2072   -0.5229 C   0  0  0  0  0  0  0  0  0  0  0  0
    0.9660    0.3243    0.0161 C   0  0  0  0  0  0  0  0  0  0  0  0
    2.3961    0.7249    0.0899 N   0  0  0  0  0  0  0  0  0  0  0  0
    2.6982    1.8395   -0.3256 O   0  0  0  0  0  0  0  0  0  0  0  0
    3.1885   -0.0869    0.5673 O   0  0  0  0  0  0  0  0  0  0  0  0
    0.6374   -0.9566    0.5107 C   0  0  0  0  0  0  0  0  0  0  0  0
   -0.6806   -1.3459    0.4521 C   0  0  0  0  0  0  0  0  0  0  0  0
   -3.9219    3.0677   -1.6197 H   0  0  0  0  0  0  0  0  0  0  0  0
    0.4128    2.1664   -0.8722 H   0  0  0  0  0  0  0  0  0  0  0  0
    1.4128   -1.5921    0.9162 H   0  0  0  0  0  0  0  0  0  0  0  0
   -1.0100   -2.3160    0.8124 H   0  0  0  0  0  0  0  0  0  0  0  0
   -5.7361    2.8267   -0.5053 S   0  0  0  0  0  0  0  0  0  0  0  0
   -4.8100    3.4659   -1.6671 O   0  0  0  0  0  0  0  0  0  0  0  0
   -7.0915    3.2113   -0.8317 O   0  0  0  0  0  0  0  0  0  0  0  0
   -5.3226    1.4611   -0.2594 O   0  0  0  0  0  0  0  0  0  0  0  0
   -5.2574    3.6617    0.8050 O   0  0  0  0  0  0  0  0  0  0  0  0
   -5.7353    4.5088    0.8104 H   0  0  0  0  0  0  0  0  0  0  0  0
  1 11  2  0  0  0  0
  2  1  1  0  0  0  0
  3  2  1  0  0  0  0
  4  5  2  0  0  0  0
  4  1  1  0  0  0  0
  5  6  1  0  0  0  0
  6  7  1  0  0  0  0
  6 10  2  0  0  0  0
  7  9  2  0  0  0  0
  8  7  2  0  0  0  0
 10 14  1  0  0  0  0
 11 10  1  0  0  0  0
 11 15  1  0  0  0  0
 13  5  1  0  0  0  0
 16 19  2  0  0  0  0
 16 20  1  0  0  0  0
 17 12  1  0  0  0  0
 17 16  1  0  0  0  0
 18 16  2  0  0  0  0
 20 21  1  0  0  0  0
M  RAD  3   2   2   3   3   4   2
M  END
