Coordinates from ORCA-job 4-NO2PhN2+~HSO4-_B3LYPG-6-31G_dp-CH-Scan-d09-49-n800
 OpenBabel11261919243D

 21 20  0  0  0  0  0  0  0  0999 V2000
   -1.6328   -0.3805   -0.0974 C   0  0  0  0  0  0  0  0  0  0  0  0
   -2.9733   -0.7926   -0.1563 N   0  0  0  0  0  0  0  0  0  0  0  0
   -4.0497   -1.0758   -0.2289 N   0  0  0  0  0  0  0  0  0  0  0  0
   -1.4308    0.9160   -0.5803 C   0  0  0  0  0  0  0  0  0  0  0  0
   -0.0478    1.2527   -0.4950 C   0  0  0  0  0  0  0  0  0  0  0  0
    0.8979    0.3693    0.0043 C   0  0  0  0  0  0  0  0  0  0  0  0
    2.3235    0.7884    0.0623 N   0  0  0  0  0  0  0  0  0  0  0  0
    2.6030    1.9143   -0.3379 O   0  0  0  0  0  0  0  0  0  0  0  0
    3.1342   -0.0222    0.5096 O   0  0  0  0  0  0  0  0  0  0  0  0
    0.5953   -0.9274    0.4718 C   0  0  0  0  0  0  0  0  0  0  0  0
   -0.7183   -1.3336    0.4256 C   0  0  0  0  0  0  0  0  0  0  0  0
   -3.7198    2.8728   -1.4797 H   0  0  0  0  0  0  0  0  0  0  0  0
    0.3026    2.2259   -0.8252 H   0  0  0  0  0  0  0  0  0  0  0  0
    1.3858   -1.5621    0.8485 H   0  0  0  0  0  0  0  0  0  0  0  0
   -1.0276   -2.3167    0.7676 H   0  0  0  0  0  0  0  0  0  0  0  0
   -5.6291    2.7920   -0.5141 S   0  0  0  0  0  0  0  0  0  0  0  0
   -4.5705    3.3338   -1.6050 O   0  0  0  0  0  0  0  0  0  0  0  0
   -6.9245    3.2579   -0.9586 O   0  0  0  0  0  0  0  0  0  0  0  0
   -5.3381    1.4072   -0.2017 O   0  0  0  0  0  0  0  0  0  0  0  0
   -5.2044    3.6265    0.8159 O   0  0  0  0  0  0  0  0  0  0  0  0
   -5.6222    4.5031    0.7633 H   0  0  0  0  0  0  0  0  0  0  0  0
  1 11  2  0  0  0  0
  2  1  1  0  0  0  0
  3  2  1  0  0  0  0
  4  5  2  0  0  0  0
  4  1  1  0  0  0  0
  5  6  1  0  0  0  0
  6  7  1  0  0  0  0
  6 10  2  0  0  0  0
  7  9  2  0  0  0  0
  8  7  2  0  0  0  0
 10 14  1  0  0  0  0
 11 10  1  0  0  0  0
 11 15  1  0  0  0  0
 13  5  1  0  0  0  0
 16 19  2  0  0  0  0
 16 20  1  0  0  0  0
 17 12  1  0  0  0  0
 17 16  1  0  0  0  0
 18 16  2  0  0  0  0
 21 20  1  0  0  0  0
M  RAD  3   2   2   3   3   4   2
M  END
