Coordinates from ORCA-job 4-NO2PhN2+~HSO4-_B3LYPG-6-31G_dp-CH-Scan-d09-49-n800
 OpenBabel11261919243D

 21 20  0  0  0  0  0  0  0  0999 V2000
   -1.6158   -0.3822   -0.0959 C   0  0  0  0  0  0  0  0  0  0  0  0
   -2.9590   -0.7871   -0.1550 N   0  0  0  0  0  0  0  0  0  0  0  0
   -4.0373   -1.0634   -0.2287 N   0  0  0  0  0  0  0  0  0  0  0  0
   -1.4086    0.9113   -0.5835 C   0  0  0  0  0  0  0  0  0  0  0  0
   -0.0239    1.2422   -0.4977 C   0  0  0  0  0  0  0  0  0  0  0  0
    0.9173    0.3567    0.0065 C   0  0  0  0  0  0  0  0  0  0  0  0
    2.3445    0.7698    0.0653 N   0  0  0  0  0  0  0  0  0  0  0  0
    2.6295    1.8935   -0.3375 O   0  0  0  0  0  0  0  0  0  0  0  0
    3.1514   -0.0431    0.5153 O   0  0  0  0  0  0  0  0  0  0  0  0
    0.6085   -0.9372    0.4783 C   0  0  0  0  0  0  0  0  0  0  0  0
   -0.7067   -1.3379    0.4318 C   0  0  0  0  0  0  0  0  0  0  0  0
   -3.7650    2.9231   -1.5064 H   0  0  0  0  0  0  0  0  0  0  0  0
    0.3314    2.2126   -0.8312 H   0  0  0  0  0  0  0  0  0  0  0  0
    1.3958   -1.5738    0.8583 H   0  0  0  0  0  0  0  0  0  0  0  0
   -1.0208   -2.3185    0.7768 H   0  0  0  0  0  0  0  0  0  0  0  0
   -5.6596    2.8022   -0.5161 S   0  0  0  0  0  0  0  0  0  0  0  0
   -4.6243    3.3703   -1.6175 O   0  0  0  0  0  0  0  0  0  0  0  0
   -6.9681    3.2485   -0.9416 O   0  0  0  0  0  0  0  0  0  0  0  0
   -5.3393    1.4210   -0.2177 O   0  0  0  0  0  0  0  0  0  0  0  0
   -5.2318    3.6356    0.8134 O   0  0  0  0  0  0  0  0  0  0  0  0
   -5.6650    4.5054    0.7720 H   0  0  0  0  0  0  0  0  0  0  0  0
  1 11  2  0  0  0  0
  2  1  1  0  0  0  0
  3  2  1  0  0  0  0
  4  5  2  0  0  0  0
  4  1  1  0  0  0  0
  5  6  1  0  0  0  0
  6  7  1  0  0  0  0
  6 10  2  0  0  0  0
  7  9  2  0  0  0  0
  8  7  2  0  0  0  0
 10 14  1  0  0  0  0
 11 10  1  0  0  0  0
 11 15  1  0  0  0  0
 13  5  1  0  0  0  0
 16 19  2  0  0  0  0
 16 20  1  0  0  0  0
 17 12  1  0  0  0  0
 17 16  1  0  0  0  0
 18 16  2  0  0  0  0
 21 20  1  0  0  0  0
M  RAD  3   2   2   3   3   4   2
M  END
