Coordinates from ORCA-job 4-NO2PhN2+~HSO4-_B3LYPG-6-31G_dp-CH-Scan-d09-49-n800
 OpenBabel11261919243D

 21 20  0  0  0  0  0  0  0  0999 V2000
   -1.6627   -0.4792   -0.5373 C   0  0  0  0  0  0  0  0  0  0  0  0
   -2.9322   -0.9822   -0.8745 N   0  0  0  0  0  0  0  0  0  0  0  0
   -3.9390   -1.3293   -1.2078 N   0  0  0  0  0  0  0  0  0  0  0  0
   -1.3106    0.6193   -1.3217 C   0  0  0  0  0  0  0  0  0  0  0  0
   -0.0133    1.0792   -0.9429 C   0  0  0  0  0  0  0  0  0  0  0  0
    0.7167    0.4743    0.0694 C   0  0  0  0  0  0  0  0  0  0  0  0
    2.0579    1.0119    0.4188 N   0  0  0  0  0  0  0  0  0  0  0  0
    2.4573    1.9949   -0.1989 O   0  0  0  0  0  0  0  0  0  0  0  0
    2.6870    0.4375    1.3072 O   0  0  0  0  0  0  0  0  0  0  0  0
    0.2667   -0.6422    0.8085 C   0  0  0  0  0  0  0  0  0  0  0  0
   -0.9731   -1.1542    0.5036 C   0  0  0  0  0  0  0  0  0  0  0  0
   -4.4665    2.9676   -2.0947 H   0  0  0  0  0  0  0  0  0  0  0  0
    0.4381    1.9299   -1.4453 H   0  0  0  0  0  0  0  0  0  0  0  0
    0.8942   -1.0626    1.5829 H   0  0  0  0  0  0  0  0  0  0  0  0
   -1.3865   -2.0120    1.0260 H   0  0  0  0  0  0  0  0  0  0  0  0
   -5.3022    2.6588   -0.1415 S   0  0  0  0  0  0  0  0  0  0  0  0
   -5.1917    3.3758   -1.5906 O   0  0  0  0  0  0  0  0  0  0  0  0
   -6.5639    3.0996    0.4099 O   0  0  0  0  0  0  0  0  0  0  0  0
   -4.9180    1.2676   -0.2643 O   0  0  0  0  0  0  0  0  0  0  0  0
   -4.0923    3.3679    0.6772 O   0  0  0  0  0  0  0  0  0  0  0  0
   -4.4126    4.2261    1.0047 H   0  0  0  0  0  0  0  0  0  0  0  0
  1 11  2  0  0  0  0
  2  1  1  0  0  0  0
  3  2  1  0  0  0  0
  4  5  2  0  0  0  0
  4  1  1  0  0  0  0
  5  6  1  0  0  0  0
  6  7  1  0  0  0  0
  6 10  2  0  0  0  0
  7  9  2  0  0  0  0
  8  7  2  0  0  0  0
 10 14  1  0  0  0  0
 11 10  1  0  0  0  0
 11 15  1  0  0  0  0
 12 17  1  0  0  0  0
 13  5  1  0  0  0  0
 16 18  2  0  0  0  0
 16 20  1  0  0  0  0
 17 16  1  0  0  0  0
 19 16  2  0  0  0  0
 20 21  1  0  0  0  0
M  RAD  3   2   2   3   3   4   2
M  END
