Coordinates from ORCA-job 4-NO2PhN2+~HSO4-_B3LYPG-6-31G_dp-CH-Scan-d09-49-n800
 OpenBabel11261919243D

 21 20  0  0  0  0  0  0  0  0999 V2000
   -1.6522   -0.5134   -1.0427 C   0  0  0  0  0  0  0  0  0  0  0  0
   -2.8509   -1.1264   -1.4618 N   0  0  0  0  0  0  0  0  0  0  0  0
   -3.7518   -1.6386   -1.8742 N   0  0  0  0  0  0  0  0  0  0  0  0
   -0.6451   -0.6480   -1.9953 C   0  0  0  0  0  0  0  0  0  0  0  0
    0.5347    0.0222   -1.5414 C   0  0  0  0  0  0  0  0  0  0  0  0
    0.5727    0.7138   -0.3411 C   0  0  0  0  0  0  0  0  0  0  0  0
    1.8155    1.4287    0.0512 N   0  0  0  0  0  0  0  0  0  0  0  0
    2.7688    1.3819   -0.7194 O   0  0  0  0  0  0  0  0  0  0  0  0
    1.8097    2.0245    1.1293 O   0  0  0  0  0  0  0  0  0  0  0  0
   -0.5086    0.7728    0.5700 C   0  0  0  0  0  0  0  0  0  0  0  0
   -1.6757    0.1269    0.2259 C   0  0  0  0  0  0  0  0  0  0  0  0
   -2.8668    2.7267    0.0412 H   0  0  0  0  0  0  0  0  0  0  0  0
    1.4391    0.0103   -2.1436 H   0  0  0  0  0  0  0  0  0  0  0  0
   -0.3853    1.2911    1.5118 H   0  0  0  0  0  0  0  0  0  0  0  0
   -2.5382    0.0924    0.8842 H   0  0  0  0  0  0  0  0  0  0  0  0
   -4.9583    2.2818    0.2190 S   0  0  0  0  0  0  0  0  0  0  0  0
   -3.6784    3.2640    0.0959 O   0  0  0  0  0  0  0  0  0  0  0  0
   -6.1164    3.1040   -0.0408 O   0  0  0  0  0  0  0  0  0  0  0  0
   -4.6720    1.0402   -0.4742 O   0  0  0  0  0  0  0  0  0  0  0  0
   -4.9241    1.8921    1.7975 O   0  0  0  0  0  0  0  0  0  0  0  0
   -5.3633    2.6020    2.2976 H   0  0  0  0  0  0  0  0  0  0  0  0
  1 11  2  0  0  0  0
  2  1  1  0  0  0  0
  3  2  1  0  0  0  0
  4  5  2  0  0  0  0
  4  1  1  0  0  0  0
  5  6  1  0  0  0  0
  6  7  1  0  0  0  0
  6 10  2  0  0  0  0
  7  9  2  0  0  0  0
  8  7  2  0  0  0  0
 10 14  1  0  0  0  0
 11 10  1  0  0  0  0
 11 15  1  0  0  0  0
 12 17  1  0  0  0  0
 13  5  1  0  0  0  0
 16 20  1  0  0  0  0
 17 16  1  0  0  0  0
 18 16  2  0  0  0  0
 19 16  2  0  0  0  0
 20 21  1  0  0  0  0
M  RAD  3   2   2   3   3   4   2
M  END
