Coordinates from ORCA-job 4-NO2PhN2+~HSO4-_B3LYPG-6-31G_dp-CH-Scan-d09-49-n800
 OpenBabel11261919243D

 21 20  0  0  0  0  0  0  0  0999 V2000
   -1.6499   -0.3781   -0.1000 C   0  0  0  0  0  0  0  0  0  0  0  0
   -2.9877   -0.7973   -0.1595 N   0  0  0  0  0  0  0  0  0  0  0  0
   -4.0619   -1.0883   -0.2328 N   0  0  0  0  0  0  0  0  0  0  0  0
   -1.4525    0.9212   -0.5779 C   0  0  0  0  0  0  0  0  0  0  0  0
   -0.0713    1.2637   -0.4924 C   0  0  0  0  0  0  0  0  0  0  0  0
    0.8785    0.3823    0.0026 C   0  0  0  0  0  0  0  0  0  0  0  0
    2.3024    0.8071    0.0608 N   0  0  0  0  0  0  0  0  0  0  0  0
    2.5769    1.9351   -0.3368 O   0  0  0  0  0  0  0  0  0  0  0  0
    3.1166   -0.0014    0.5053 O   0  0  0  0  0  0  0  0  0  0  0  0
    0.5816   -0.9172    0.4654 C   0  0  0  0  0  0  0  0  0  0  0  0
   -0.7303   -1.3286    0.4186 C   0  0  0  0  0  0  0  0  0  0  0  0
   -3.6772    2.8191   -1.4540 H   0  0  0  0  0  0  0  0  0  0  0  0
    0.2745    2.2397   -0.8191 H   0  0  0  0  0  0  0  0  0  0  0  0
    1.3749   -1.5501    0.8393 H   0  0  0  0  0  0  0  0  0  0  0  0
   -1.0351   -2.3143    0.7573 H   0  0  0  0  0  0  0  0  0  0  0  0
   -5.5987    2.7811   -0.5105 S   0  0  0  0  0  0  0  0  0  0  0  0
   -4.5192    3.2935   -1.5934 O   0  0  0  0  0  0  0  0  0  0  0  0
   -6.8809    3.2664   -0.9728 O   0  0  0  0  0  0  0  0  0  0  0  0
   -5.3380    1.3937   -0.1819 O   0  0  0  0  0  0  0  0  0  0  0  0
   -5.1738    3.6190    0.8177 O   0  0  0  0  0  0  0  0  0  0  0  0
   -5.5756    4.5023    0.7529 H   0  0  0  0  0  0  0  0  0  0  0  0
  1 11  2  0  0  0  0
  2  1  1  0  0  0  0
  3  2  1  0  0  0  0
  4  5  2  0  0  0  0
  4  1  1  0  0  0  0
  5  6  1  0  0  0  0
  6  7  1  0  0  0  0
  6 10  2  0  0  0  0
  7  9  2  0  0  0  0
  8  7  2  0  0  0  0
 10 14  1  0  0  0  0
 11 10  1  0  0  0  0
 11 15  1  0  0  0  0
 13  5  1  0  0  0  0
 16 19  2  0  0  0  0
 16 20  1  0  0  0  0
 17 12  1  0  0  0  0
 17 16  1  0  0  0  0
 18 16  2  0  0  0  0
 21 20  1  0  0  0  0
M  RAD  3   2   2   3   3   4   2
M  END
