Coordinates from ORCA-job 4-NO2PhN2+~HSO4-_B3LYPG-6-31G_dp-CH-Scan-d09-49-n800
 OpenBabel11261919243D

 21 20  0  0  0  0  0  0  0  0999 V2000
   -1.7700   -0.3674   -0.1242 C   0  0  0  0  0  0  0  0  0  0  0  0
   -3.0882   -0.8344   -0.1888 N   0  0  0  0  0  0  0  0  0  0  0  0
   -4.1493   -1.1678   -0.2612 N   0  0  0  0  0  0  0  0  0  0  0  0
   -1.6073    0.9529   -0.5616 C   0  0  0  0  0  0  0  0  0  0  0  0
   -0.2409    1.3389   -0.4708 C   0  0  0  0  0  0  0  0  0  0  0  0
    0.7388    0.4734   -0.0066 C   0  0  0  0  0  0  0  0  0  0  0  0
    2.1484    0.9425    0.0589 N   0  0  0  0  0  0  0  0  0  0  0  0
    2.3829    2.0901   -0.3059 O   0  0  0  0  0  0  0  0  0  0  0  0
    2.9884    0.1488    0.4805 O   0  0  0  0  0  0  0  0  0  0  0  0
    0.4847   -0.8470    0.4164 C   0  0  0  0  0  0  0  0  0  0  0  0
   -0.8140   -1.2987    0.3610 C   0  0  0  0  0  0  0  0  0  0  0  0
   -3.4032    2.4411   -1.2848 H   0  0  0  0  0  0  0  0  0  0  0  0
    0.0694    2.3353   -0.7686 H   0  0  0  0  0  0  0  0  0  0  0  0
    1.2987   -1.4661    0.7685 H   0  0  0  0  0  0  0  0  0  0  0  0
   -1.0849   -2.3032    0.6710 H   0  0  0  0  0  0  0  0  0  0  0  0
   -5.3730    2.7045   -0.4790 S   0  0  0  0  0  0  0  0  0  0  0  0
   -4.1885    2.9941   -1.5166 O   0  0  0  0  0  0  0  0  0  0  0  0
   -6.5672    3.2926   -1.0490 O   0  0  0  0  0  0  0  0  0  0  0  0
   -5.3080    1.3263   -0.0274 O   0  0  0  0  0  0  0  0  0  0  0  0
   -4.9319    3.5904    0.8156 O   0  0  0  0  0  0  0  0  0  0  0  0
   -5.2316    4.5026    0.6616 H   0  0  0  0  0  0  0  0  0  0  0  0
  1 11  2  0  0  0  0
  2  1  1  0  0  0  0
  3  2  1  0  0  0  0
  4  5  2  0  0  0  0
  4  1  1  0  0  0  0
  5  6  1  0  0  0  0
  6  7  1  0  0  0  0
  6 10  2  0  0  0  0
  7  9  2  0  0  0  0
  8  7  2  0  0  0  0
 10 14  1  0  0  0  0
 11 10  1  0  0  0  0
 11 15  1  0  0  0  0
 13  5  1  0  0  0  0
 16 19  2  0  0  0  0
 16 20  1  0  0  0  0
 17 12  1  0  0  0  0
 17 16  1  0  0  0  0
 18 16  2  0  0  0  0
 21 20  1  0  0  0  0
M  RAD  3   2   2   3   3   4   2
M  END
