Coordinates from ORCA-job 4-NO2PhN2+~HSO4-_B3LYPG-6-31G_dp-CH-Scan-d09-49-n800
 OpenBabel11261919243D

 21 20  0  0  0  0  0  0  0  0999 V2000
   -1.7002   -0.5090   -0.7739 C   0  0  0  0  0  0  0  0  0  0  0  0
   -2.9069   -1.0712   -1.2275 N   0  0  0  0  0  0  0  0  0  0  0  0
   -3.8481   -1.4786   -1.6676 N   0  0  0  0  0  0  0  0  0  0  0  0
   -1.1470    0.3527   -1.7204 C   0  0  0  0  0  0  0  0  0  0  0  0
    0.0724    0.8957   -1.2139 C   0  0  0  0  0  0  0  0  0  0  0  0
    0.5560    0.5717    0.0454 C   0  0  0  0  0  0  0  0  0  0  0  0
    1.8245    1.1866    0.5169 N   0  0  0  0  0  0  0  0  0  0  0  0
    2.3745    1.9990   -0.2214 O   0  0  0  0  0  0  0  0  0  0  0  0
    2.2469    0.8441    1.6214 O   0  0  0  0  0  0  0  0  0  0  0  0
   -0.0857   -0.3215    0.9322 C   0  0  0  0  0  0  0  0  0  0  0  0
   -1.2657   -0.8962    0.5200 C   0  0  0  0  0  0  0  0  0  0  0  0
   -4.6170    3.0019   -1.9961 H   0  0  0  0  0  0  0  0  0  0  0  0
    0.6570    1.5893   -1.8120 H   0  0  0  0  0  0  0  0  0  0  0  0
    0.3547   -0.5297    1.8977 H   0  0  0  0  0  0  0  0  0  0  0  0
   -1.8189   -1.5906    1.1458 H   0  0  0  0  0  0  0  0  0  0  0  0
   -4.9823    2.4794    0.0508 S   0  0  0  0  0  0  0  0  0  0  0  0
   -5.1896    3.3590   -1.2949 O   0  0  0  0  0  0  0  0  0  0  0  0
   -6.0799    2.8348    0.9213 O   0  0  0  0  0  0  0  0  0  0  0  0
   -4.6541    1.1183   -0.3231 O   0  0  0  0  0  0  0  0  0  0  0  0
   -3.6083    3.1006    0.6496 O   0  0  0  0  0  0  0  0  0  0  0  0
   -3.8291    3.9125    1.1385 H   0  0  0  0  0  0  0  0  0  0  0  0
  1 11  2  0  0  0  0
  2  1  1  0  0  0  0
  3  2  1  0  0  0  0
  4  5  2  0  0  0  0
  4  1  1  0  0  0  0
  5  6  1  0  0  0  0
  6  7  1  0  0  0  0
  6 10  2  0  0  0  0
  7  9  2  0  0  0  0
  8  7  2  0  0  0  0
 10 14  1  0  0  0  0
 11 10  1  0  0  0  0
 11 15  1  0  0  0  0
 12 17  1  0  0  0  0
 13  5  1  0  0  0  0
 16 20  1  0  0  0  0
 16 18  2  0  0  0  0
 17 16  1  0  0  0  0
 19 16  2  0  0  0  0
 20 21  1  0  0  0  0
M  RAD  3   2   2   3   3   4   2
M  END
