Coordinates from ORCA-job 4-NO2PhN2+~HSO4-_B3LYPG-6-31G_dp-CH-Scan-d09-49-n800
 OpenBabel11261919243D

 21 20  0  0  0  0  0  0  0  0999 V2000
   -1.6861   -0.4997   -0.6646 C   0  0  0  0  0  0  0  0  0  0  0  0
   -2.9222   -1.0357   -1.0683 N   0  0  0  0  0  0  0  0  0  0  0  0
   -3.8953   -1.4137   -1.4630 N   0  0  0  0  0  0  0  0  0  0  0  0
   -1.2416    0.4907   -1.5403 C   0  0  0  0  0  0  0  0  0  0  0  0
    0.0151    0.9959   -1.0888 C   0  0  0  0  0  0  0  0  0  0  0  0
    0.6274    0.5254    0.0635 C   0  0  0  0  0  0  0  0  0  0  0  0
    1.9296    1.1063    0.4835 N   0  0  0  0  0  0  0  0  0  0  0  0
    2.4001    2.0091   -0.2030 O   0  0  0  0  0  0  0  0  0  0  0  0
    2.4579    0.6465    1.4958 O   0  0  0  0  0  0  0  0  0  0  0  0
    0.0893   -0.4898    0.8856 C   0  0  0  0  0  0  0  0  0  0  0  0
   -1.1181   -1.0377    0.5191 C   0  0  0  0  0  0  0  0  0  0  0  0
   -4.5901    2.9931   -2.0737 H   0  0  0  0  0  0  0  0  0  0  0  0
    0.5272    1.7762   -1.6449 H   0  0  0  0  0  0  0  0  0  0  0  0
    0.6268   -0.8078    1.7687 H   0  0  0  0  0  0  0  0  0  0  0  0
   -1.5953   -1.8220    1.0997 H   0  0  0  0  0  0  0  0  0  0  0  0
   -5.1201    2.5690   -0.0395 S   0  0  0  0  0  0  0  0  0  0  0  0
   -5.2273    3.3719   -1.4432 O   0  0  0  0  0  0  0  0  0  0  0  0
   -6.2893    2.9549    0.7181 O   0  0  0  0  0  0  0  0  0  0  0  0
   -4.7483    1.1949   -0.3077 O   0  0  0  0  0  0  0  0  0  0  0  0
   -3.8074    3.2443    0.6345 O   0  0  0  0  0  0  0  0  0  0  0  0
   -4.0789    4.0774    1.0574 H   0  0  0  0  0  0  0  0  0  0  0  0
  1 11  2  0  0  0  0
  2  1  1  0  0  0  0
  3  2  1  0  0  0  0
  4  5  2  0  0  0  0
  4  1  1  0  0  0  0
  5  6  1  0  0  0  0
  6  7  1  0  0  0  0
  6 10  2  0  0  0  0
  7  9  2  0  0  0  0
  8  7  2  0  0  0  0
 10 14  1  0  0  0  0
 11 10  1  0  0  0  0
 11 15  1  0  0  0  0
 12 17  1  0  0  0  0
 13  5  1  0  0  0  0
 16 20  1  0  0  0  0
 16 18  2  0  0  0  0
 17 16  1  0  0  0  0
 19 16  2  0  0  0  0
 20 21  1  0  0  0  0
M  RAD  3   2   2   3   3   4   2
M  END
