Coordinates from ORCA-job 4-NO2PhN2+~HSO4-_B3LYPG-6-31G_dp-CH-Scan-d09-49-n800
 OpenBabel11261919243D

 21 20  0  0  0  0  0  0  0  0999 V2000
   -1.5849   -0.4289   -0.2541 C   0  0  0  0  0  0  0  0  0  0  0  0
   -2.9168   -0.8498   -0.4193 N   0  0  0  0  0  0  0  0  0  0  0  0
   -3.9824   -1.1299   -0.5955 N   0  0  0  0  0  0  0  0  0  0  0  0
   -1.3320    0.7986   -0.8689 C   0  0  0  0  0  0  0  0  0  0  0  0
    0.0352    1.1584   -0.6707 C   0  0  0  0  0  0  0  0  0  0  0  0
    0.9143    0.3562    0.0416 C   0  0  0  0  0  0  0  0  0  0  0  0
    2.3239    0.7969    0.2131 N   0  0  0  0  0  0  0  0  0  0  0  0
    2.6512    1.8692   -0.2866 O   0  0  0  0  0  0  0  0  0  0  0  0
    3.0765    0.0579    0.8476 O   0  0  0  0  0  0  0  0  0  0  0  0
    0.5574   -0.8774    0.6290 C   0  0  0  0  0  0  0  0  0  0  0  0
   -0.7426   -1.3029    0.4834 C   0  0  0  0  0  0  0  0  0  0  0  0
   -4.1543    3.0754   -1.8952 H   0  0  0  0  0  0  0  0  0  0  0  0
    0.4246    2.0866   -1.0787 H   0  0  0  0  0  0  0  0  0  0  0  0
    1.2991   -1.4509    1.1684 H   0  0  0  0  0  0  0  0  0  0  0  0
   -1.0913   -2.2414    0.9041 H   0  0  0  0  0  0  0  0  0  0  0  0
   -5.6528    2.7999   -0.3871 S   0  0  0  0  0  0  0  0  0  0  0  0
   -5.0253    3.4723   -1.7193 O   0  0  0  0  0  0  0  0  0  0  0  0
   -7.0432    3.1973   -0.3718 O   0  0  0  0  0  0  0  0  0  0  0  0
   -5.2049    1.4264   -0.2861 O   0  0  0  0  0  0  0  0  0  0  0  0
   -4.8686    3.5958    0.7929 O   0  0  0  0  0  0  0  0  0  0  0  0
   -5.3297    4.4392    0.9419 H   0  0  0  0  0  0  0  0  0  0  0  0
  1 11  2  0  0  0  0
  2  1  1  0  0  0  0
  3  2  1  0  0  0  0
  4  5  2  0  0  0  0
  4  1  1  0  0  0  0
  5  6  1  0  0  0  0
  6  7  1  0  0  0  0
  6 10  2  0  0  0  0
  7  9  2  0  0  0  0
  8  7  2  0  0  0  0
 10 14  1  0  0  0  0
 11 10  1  0  0  0  0
 11 15  1  0  0  0  0
 12 17  1  0  0  0  0
 13  5  1  0  0  0  0
 16 18  2  0  0  0  0
 16 19  2  0  0  0  0
 16 20  1  0  0  0  0
 17 16  1  0  0  0  0
 20 21  1  0  0  0  0
M  RAD  3   2   2   3   3   4   2
M  END
