Coordinates from ORCA-job 4-NO2PhN2+~HSO4-_B3LYPG-6-31G_dp-CH-Scan-d09-49-n800
 OpenBabel11261919243D

 21 20  0  0  0  0  0  0  0  0999 V2000
   -1.6945   -0.3728   -0.1060 C   0  0  0  0  0  0  0  0  0  0  0  0
   -3.0252   -0.8098   -0.1658 N   0  0  0  0  0  0  0  0  0  0  0  0
   -4.0946   -1.1177   -0.2357 N   0  0  0  0  0  0  0  0  0  0  0  0
   -1.5101    0.9349   -0.5682 C   0  0  0  0  0  0  0  0  0  0  0  0
   -0.1338    1.2927   -0.4828 C   0  0  0  0  0  0  0  0  0  0  0  0
    0.8276    0.4161   -0.0017 C   0  0  0  0  0  0  0  0  0  0  0  0
    2.2467    0.8565    0.0568 N   0  0  0  0  0  0  0  0  0  0  0  0
    2.5067    1.9915   -0.3302 O   0  0  0  0  0  0  0  0  0  0  0  0
    3.0709    0.0526    0.4909 O   0  0  0  0  0  0  0  0  0  0  0  0
    0.5465   -0.8917    0.4461 C   0  0  0  0  0  0  0  0  0  0  0  0
   -0.7609   -1.3173    0.3981 C   0  0  0  0  0  0  0  0  0  0  0  0
   -3.5679    2.6772   -1.3852 H   0  0  0  0  0  0  0  0  0  0  0  0
    0.1991    2.2765   -0.7986 H   0  0  0  0  0  0  0  0  0  0  0  0
    1.3478   -1.5202    0.8102 H   0  0  0  0  0  0  0  0  0  0  0  0
   -1.0532   -2.3103    0.7261 H   0  0  0  0  0  0  0  0  0  0  0  0
   -5.5174    2.7533   -0.5024 S   0  0  0  0  0  0  0  0  0  0  0  0
   -4.3863    3.1851   -1.5620 O   0  0  0  0  0  0  0  0  0  0  0  0
   -6.7633    3.2846   -1.0120 O   0  0  0  0  0  0  0  0  0  0  0  0
   -5.3353    1.3636   -0.1306 O   0  0  0  0  0  0  0  0  0  0  0  0
   -5.0941    3.6034    0.8195 O   0  0  0  0  0  0  0  0  0  0  0  0
   -5.4555    4.5009    0.7221 H   0  0  0  0  0  0  0  0  0  0  0  0
  1 11  2  0  0  0  0
  2  1  1  0  0  0  0
  3  2  1  0  0  0  0
  4  5  2  0  0  0  0
  4  1  1  0  0  0  0
  5  6  1  0  0  0  0
  6  7  1  0  0  0  0
  6 10  2  0  0  0  0
  7  9  2  0  0  0  0
  8  7  2  0  0  0  0
 10 14  1  0  0  0  0
 11 10  1  0  0  0  0
 11 15  1  0  0  0  0
 13  5  1  0  0  0  0
 16 19  2  0  0  0  0
 16 20  1  0  0  0  0
 17 12  1  0  0  0  0
 17 16  1  0  0  0  0
 18 16  2  0  0  0  0
 21 20  1  0  0  0  0
M  RAD  3   2   2   3   3   4   2
M  END
