Coordinates from ORCA-job 4-NO2PhN2+~HSO4-_B3LYPG-6-31G_dp-CH-Scan-d09-49-n800
 OpenBabel11261919243D

 21 20  0  0  0  0  0  0  0  0999 V2000
   -1.7832   -0.3658   -0.1272 C   0  0  0  0  0  0  0  0  0  0  0  0
   -3.0994   -0.8373   -0.1929 N   0  0  0  0  0  0  0  0  0  0  0  0
   -4.1591   -1.1755   -0.2631 N   0  0  0  0  0  0  0  0  0  0  0  0
   -1.6239    0.9566   -0.5601 C   0  0  0  0  0  0  0  0  0  0  0  0
   -0.2593    1.3472   -0.4685 C   0  0  0  0  0  0  0  0  0  0  0  0
    0.7234    0.4834   -0.0071 C   0  0  0  0  0  0  0  0  0  0  0  0
    2.1314    0.9572    0.0599 N   0  0  0  0  0  0  0  0  0  0  0  0
    2.3621    2.1059   -0.3035 O   0  0  0  0  0  0  0  0  0  0  0  0
    2.9743    0.1642    0.4767 O   0  0  0  0  0  0  0  0  0  0  0  0
    0.4736   -0.8390    0.4114 C   0  0  0  0  0  0  0  0  0  0  0  0
   -0.8237   -1.2948    0.3546 C   0  0  0  0  0  0  0  0  0  0  0  0
   -3.3744    2.4014   -1.2657 H   0  0  0  0  0  0  0  0  0  0  0  0
    0.0472    2.3457   -0.7631 H   0  0  0  0  0  0  0  0  0  0  0  0
    1.2896   -1.4566    0.7614 H   0  0  0  0  0  0  0  0  0  0  0  0
   -1.0911   -2.3012    0.6614 H   0  0  0  0  0  0  0  0  0  0  0  0
   -5.3470    2.6956   -0.4762 S   0  0  0  0  0  0  0  0  0  0  0  0
   -4.1539    2.9624   -1.5074 O   0  0  0  0  0  0  0  0  0  0  0  0
   -6.5322    3.2919   -1.0568 O   0  0  0  0  0  0  0  0  0  0  0  0
   -5.3014    1.3203   -0.0121 O   0  0  0  0  0  0  0  0  0  0  0  0
   -4.9048    3.5869    0.8149 O   0  0  0  0  0  0  0  0  0  0  0  0
   -5.1949    4.5005    0.6519 H   0  0  0  0  0  0  0  0  0  0  0  0
  1 11  2  0  0  0  0
  2  1  1  0  0  0  0
  3  2  1  0  0  0  0
  4  5  2  0  0  0  0
  4  1  1  0  0  0  0
  5  6  1  0  0  0  0
  6  7  1  0  0  0  0
  6 10  2  0  0  0  0
  7  9  2  0  0  0  0
  8  7  2  0  0  0  0
 10 14  1  0  0  0  0
 11 10  1  0  0  0  0
 11 15  1  0  0  0  0
 13  5  1  0  0  0  0
 16 19  2  0  0  0  0
 16 20  1  0  0  0  0
 17 12  1  0  0  0  0
 17 16  1  0  0  0  0
 18 16  2  0  0  0  0
 21 20  1  0  0  0  0
M  RAD  3   2   2   3   3   4   2
M  END
