Coordinates from ORCA-job 4-NO2PhN2+~HSO4-_B3LYPG-6-31G_dp-CH-Scan-d09-49-n800
 OpenBabel11261919243D

 21 20  0  0  0  0  0  0  0  0999 V2000
   -1.6549   -0.4791   -0.5530 C   0  0  0  0  0  0  0  0  0  0  0  0
   -2.9233   -0.9795   -0.8989 N   0  0  0  0  0  0  0  0  0  0  0  0
   -3.9284   -1.3242   -1.2400 N   0  0  0  0  0  0  0  0  0  0  0  0
   -1.2855    0.6017   -1.3538 C   0  0  0  0  0  0  0  0  0  0  0  0
    0.0091    1.0615   -0.9656 C   0  0  0  0  0  0  0  0  0  0  0  0
    0.7211    0.4722    0.0686 C   0  0  0  0  0  0  0  0  0  0  0  0
    2.0605    1.0087    0.4266 N   0  0  0  0  0  0  0  0  0  0  0  0
    2.4725    1.9801   -0.2011 O   0  0  0  0  0  0  0  0  0  0  0  0
    2.6760    0.4445    1.3310 O   0  0  0  0  0  0  0  0  0  0  0  0
    0.2540   -0.6272    0.8226 C   0  0  0  0  0  0  0  0  0  0  0  0
   -0.9845   -1.1379    0.5104 C   0  0  0  0  0  0  0  0  0  0  0  0
   -4.5121    2.9840   -2.0967 H   0  0  0  0  0  0  0  0  0  0  0  0
    0.4726    1.8997   -1.4781 H   0  0  0  0  0  0  0  0  0  0  0  0
    0.8681   -1.0360    1.6138 H   0  0  0  0  0  0  0  0  0  0  0  0
   -1.4107   -1.9827    1.0436 H   0  0  0  0  0  0  0  0  0  0  0  0
   -5.3023    2.6526   -0.1293 S   0  0  0  0  0  0  0  0  0  0  0  0
   -5.2283    3.3842   -1.5735 O   0  0  0  0  0  0  0  0  0  0  0  0
   -6.5567    3.0749    0.4522 O   0  0  0  0  0  0  0  0  0  0  0  0
   -4.9061    1.2670   -0.2745 O   0  0  0  0  0  0  0  0  0  0  0  0
   -4.0831    3.3662    0.6713 O   0  0  0  0  0  0  0  0  0  0  0  0
   -4.4047    4.2184    1.0132 H   0  0  0  0  0  0  0  0  0  0  0  0
  1 11  2  0  0  0  0
  2  1  1  0  0  0  0
  3  2  1  0  0  0  0
  4  5  2  0  0  0  0
  4  1  1  0  0  0  0
  5  6  1  0  0  0  0
  6  7  1  0  0  0  0
  6 10  2  0  0  0  0
  7  9  2  0  0  0  0
  8  7  2  0  0  0  0
 10 14  1  0  0  0  0
 11 10  1  0  0  0  0
 11 15  1  0  0  0  0
 12 17  1  0  0  0  0
 13  5  1  0  0  0  0
 16 18  2  0  0  0  0
 16 20  1  0  0  0  0
 17 16  1  0  0  0  0
 19 16  2  0  0  0  0
 20 21  1  0  0  0  0
M  RAD  3   2   2   3   3   4   2
M  END
