Coordinates from ORCA-job 4-NO2PhN2+~HSO4-_B3LYPG-6-31G_dp-CH-Scan-d09-49-n800
 OpenBabel11261919243D

 21 20  0  0  0  0  0  0  0  0999 V2000
   -1.6225   -0.4930   -1.0546 C   0  0  0  0  0  0  0  0  0  0  0  0
   -2.8266   -1.0955   -1.4739 N   0  0  0  0  0  0  0  0  0  0  0  0
   -3.7322   -1.5980   -1.8883 N   0  0  0  0  0  0  0  0  0  0  0  0
   -0.6166   -0.6421   -2.0067 C   0  0  0  0  0  0  0  0  0  0  0  0
    0.5740    0.0039   -1.5471 C   0  0  0  0  0  0  0  0  0  0  0  0
    0.6276    0.6719   -0.3338 C   0  0  0  0  0  0  0  0  0  0  0  0
    1.8880    1.3478    0.0723 N   0  0  0  0  0  0  0  0  0  0  0  0
    2.8548    1.2523   -0.6769 O   0  0  0  0  0  0  0  0  0  0  0  0
    1.8815    1.9663    1.1375 O   0  0  0  0  0  0  0  0  0  0  0  0
   -0.4560    0.7522    0.5719 C   0  0  0  0  0  0  0  0  0  0  0  0
   -1.6383    0.1427    0.2157 C   0  0  0  0  0  0  0  0  0  0  0  0
   -3.0380    2.9338   -0.0778 H   0  0  0  0  0  0  0  0  0  0  0  0
    1.4761   -0.0112   -2.1528 H   0  0  0  0  0  0  0  0  0  0  0  0
   -0.3272    1.2657    1.5154 H   0  0  0  0  0  0  0  0  0  0  0  0
   -2.5097    0.1384    0.8626 H   0  0  0  0  0  0  0  0  0  0  0  0
   -5.0526    2.2739    0.2443 S   0  0  0  0  0  0  0  0  0  0  0  0
   -3.8954    3.3848    0.0225 O   0  0  0  0  0  0  0  0  0  0  0  0
   -6.3060    2.9590    0.0345 O   0  0  0  0  0  0  0  0  0  0  0  0
   -4.6704    1.0519   -0.4374 O   0  0  0  0  0  0  0  0  0  0  0  0
   -4.8869    1.9356    1.8257 O   0  0  0  0  0  0  0  0  0  0  0  0
   -5.3701    2.6088    2.3359 H   0  0  0  0  0  0  0  0  0  0  0  0
  1 11  2  0  0  0  0
  2  1  1  0  0  0  0
  3  2  1  0  0  0  0
  4  5  2  0  0  0  0
  4  1  1  0  0  0  0
  5  6  1  0  0  0  0
  6  7  1  0  0  0  0
  6 10  2  0  0  0  0
  7  9  2  0  0  0  0
  8  7  2  0  0  0  0
 10 14  1  0  0  0  0
 11 10  1  0  0  0  0
 11 15  1  0  0  0  0
 12 17  1  0  0  0  0
 13  5  1  0  0  0  0
 16 20  1  0  0  0  0
 17 16  1  0  0  0  0
 18 16  2  0  0  0  0
 19 16  2  0  0  0  0
 20 21  1  0  0  0  0
M  RAD  3   2   2   3   3   4   2
M  END
