Coordinates from ORCA-job 4-NO2PhN2+~HSO4-_B3LYPG-6-31G_dp-CH-Scan-d09-49-n800
 OpenBabel11261919243D

 21 20  0  0  0  0  0  0  0  0999 V2000
   -1.6757   -0.3751   -0.1038 C   0  0  0  0  0  0  0  0  0  0  0  0
   -3.0093   -0.8048   -0.1634 N   0  0  0  0  0  0  0  0  0  0  0  0
   -4.0808   -1.1056   -0.2348 N   0  0  0  0  0  0  0  0  0  0  0  0
   -1.4858    0.9289   -0.5736 C   0  0  0  0  0  0  0  0  0  0  0  0
   -0.1073    1.2801   -0.4880 C   0  0  0  0  0  0  0  0  0  0  0  0
    0.8490    0.4017   -0.0002 C   0  0  0  0  0  0  0  0  0  0  0  0
    2.2702    0.8355    0.0582 N   0  0  0  0  0  0  0  0  0  0  0  0
    2.5363    1.9677   -0.3331 O   0  0  0  0  0  0  0  0  0  0  0  0
    3.0899    0.0304    0.4986 O   0  0  0  0  0  0  0  0  0  0  0  0
    0.5611   -0.9023    0.4549 C   0  0  0  0  0  0  0  0  0  0  0  0
   -0.7482   -1.3219    0.4073 C   0  0  0  0  0  0  0  0  0  0  0  0
   -3.6138    2.7386   -1.4155 H   0  0  0  0  0  0  0  0  0  0  0  0
    0.2312    2.2604   -0.8089 H   0  0  0  0  0  0  0  0  0  0  0  0
    1.3589   -1.5324    0.8238 H   0  0  0  0  0  0  0  0  0  0  0  0
   -1.0459   -2.3115    0.7405 H   0  0  0  0  0  0  0  0  0  0  0  0
   -5.5518    2.7650   -0.5057 S   0  0  0  0  0  0  0  0  0  0  0  0
   -4.4425    3.2324   -1.5759 O   0  0  0  0  0  0  0  0  0  0  0  0
   -6.8138    3.2775   -0.9940 O   0  0  0  0  0  0  0  0  0  0  0  0
   -5.3357    1.3754   -0.1538 O   0  0  0  0  0  0  0  0  0  0  0  0
   -5.1271    3.6086    0.8195 O   0  0  0  0  0  0  0  0  0  0  0  0
   -5.5056    4.5005    0.7369 H   0  0  0  0  0  0  0  0  0  0  0  0
  1 11  2  0  0  0  0
  2  1  1  0  0  0  0
  3  2  1  0  0  0  0
  4  5  2  0  0  0  0
  4  1  1  0  0  0  0
  5  6  1  0  0  0  0
  6  7  1  0  0  0  0
  6 10  2  0  0  0  0
  7  9  2  0  0  0  0
  8  7  2  0  0  0  0
 10 14  1  0  0  0  0
 11 10  1  0  0  0  0
 11 15  1  0  0  0  0
 13  5  1  0  0  0  0
 16 19  2  0  0  0  0
 16 20  1  0  0  0  0
 17 12  1  0  0  0  0
 17 16  1  0  0  0  0
 18 16  2  0  0  0  0
 21 20  1  0  0  0  0
M  RAD  3   2   2   3   3   4   2
M  END
