Coordinates from ORCA-job 4-NO2PhN2+~HSO4-_B3LYPG-6-31G_dp-CH-Scan-d09-49-n800
 OpenBabel11261919243D

 21 20  0  0  0  0  0  0  0  0999 V2000
   -1.7165   -0.3708   -0.1091 C   0  0  0  0  0  0  0  0  0  0  0  0
   -3.0437   -0.8166   -0.1688 N   0  0  0  0  0  0  0  0  0  0  0  0
   -4.1102   -1.1322   -0.2461 N   0  0  0  0  0  0  0  0  0  0  0  0
   -1.5386    0.9408   -0.5639 C   0  0  0  0  0  0  0  0  0  0  0  0
   -0.1650    1.3067   -0.4781 C   0  0  0  0  0  0  0  0  0  0  0  0
    0.8021    0.4328   -0.0034 C   0  0  0  0  0  0  0  0  0  0  0  0
    2.2187    0.8813    0.0556 N   0  0  0  0  0  0  0  0  0  0  0  0
    2.4713    2.0196   -0.3260 O   0  0  0  0  0  0  0  0  0  0  0  0
    3.0480    0.0796    0.4838 O   0  0  0  0  0  0  0  0  0  0  0  0
    0.5291   -0.8788    0.4370 C   0  0  0  0  0  0  0  0  0  0  0  0
   -0.7760   -1.3119    0.3882 C   0  0  0  0  0  0  0  0  0  0  0  0
   -3.5165    2.6052   -1.3511 H   0  0  0  0  0  0  0  0  0  0  0  0
    0.1612    2.2944   -0.7884 H   0  0  0  0  0  0  0  0  0  0  0  0
    1.3343   -1.5049    0.7966 H   0  0  0  0  0  0  0  0  0  0  0  0
   -1.0618   -2.3083    0.7110 H   0  0  0  0  0  0  0  0  0  0  0  0
   -5.4763    2.7396   -0.4966 S   0  0  0  0  0  0  0  0  0  0  0  0
   -4.3233    3.1288   -1.5459 O   0  0  0  0  0  0  0  0  0  0  0  0
   -6.7044    3.2904   -1.0290 O   0  0  0  0  0  0  0  0  0  0  0  0
   -5.3321    1.3516   -0.1009 O   0  0  0  0  0  0  0  0  0  0  0  0
   -5.0524    3.5994    0.8195 O   0  0  0  0  0  0  0  0  0  0  0  0
   -5.3946    4.5024    0.7045 H   0  0  0  0  0  0  0  0  0  0  0  0
  1 11  2  0  0  0  0
  2  1  1  0  0  0  0
  3  2  1  0  0  0  0
  4  5  2  0  0  0  0
  4  1  1  0  0  0  0
  5  6  1  0  0  0  0
  6  7  1  0  0  0  0
  6 10  2  0  0  0  0
  7  9  2  0  0  0  0
  8  7  2  0  0  0  0
 10 14  1  0  0  0  0
 11 10  1  0  0  0  0
 11 15  1  0  0  0  0
 13  5  1  0  0  0  0
 16 19  2  0  0  0  0
 16 20  1  0  0  0  0
 17 12  1  0  0  0  0
 17 16  1  0  0  0  0
 18 16  2  0  0  0  0
 21 20  1  0  0  0  0
M  RAD  3   2   2   3   3   4   2
M  END
