Coordinates from ORCA-job 4-NO2PhN2+~HSO4-_B3LYPG-6-31G_dp-CH-Scan-d09-49-n800
 OpenBabel11261919243D

 21 20  0  0  0  0  0  0  0  0999 V2000
   -2.0038    0.0284   -0.3227 C   0  0  0  0  0  0  0  0  0  0  0  0
   -3.3564   -0.2517   -0.5010 N   0  0  0  0  0  0  0  0  0  0  0  0
   -4.4287   -0.4966   -0.7037 N   0  0  0  0  0  0  0  0  0  0  0  0
   -1.5336    1.3108   -0.6397 C   0  0  0  0  0  0  0  0  0  0  0  0
   -0.1657    1.5265   -0.4854 C   0  0  0  0  0  0  0  0  0  0  0  0
    0.6416    0.4909   -0.0224 C   0  0  0  0  0  0  0  0  0  0  0  0
    2.0957    0.7418    0.1434 N   0  0  0  0  0  0  0  0  0  0  0  0
    2.5082    1.8590   -0.1457 O   0  0  0  0  0  0  0  0  0  0  0  0
    2.7792   -0.1908    0.5566 O   0  0  0  0  0  0  0  0  0  0  0  0
    0.1568   -0.7802    0.2969 C   0  0  0  0  0  0  0  0  0  0  0  0
   -1.1973   -1.0277    0.1398 C   0  0  0  0  0  0  0  0  0  0  0  0
   -2.3460    2.1983   -1.0154 H   0  0  0  0  0  0  0  0  0  0  0  0
    0.2756    2.4894   -0.7099 H   0  0  0  0  0  0  0  0  0  0  0  0
    0.8383   -1.5411    0.6532 H   0  0  0  0  0  0  0  0  0  0  0  0
   -1.6251   -1.9971    0.3688 H   0  0  0  0  0  0  0  0  0  0  0  0
   -4.7293    2.5301   -0.2412 S   0  0  0  0  0  0  0  0  0  0  0  0
   -3.8200    3.0994   -1.2702 O   0  0  0  0  0  0  0  0  0  0  0  0
   -5.7201    1.5445   -0.7682 O   0  0  0  0  0  0  0  0  0  0  0  0
   -4.0053    2.0055    0.9406 O   0  0  0  0  0  0  0  0  0  0  0  0
   -5.6124    3.8297    0.2325 O   0  0  0  0  0  0  0  0  0  0  0  0
   -6.3984    3.4802    0.6826 H   0  0  0  0  0  0  0  0  0  0  0  0
  1 11  2  0  0  0  0
  2  1  1  0  0  0  0
  3  2  1  0  0  0  0
  4  5  2  0  0  0  0
  4  1  1  0  0  0  0
  5  6  1  0  0  0  0
  6  7  1  0  0  0  0
  6 10  2  0  0  0  0
  7  9  2  0  0  0  0
  8  7  2  0  0  0  0
 10 14  1  0  0  0  0
 11 10  1  0  0  0  0
 11 15  1  0  0  0  0
 12  4  1  0  0  0  0
 13  5  1  0  0  0  0
 16 20  1  0  0  0  0
 16 19  1  0  0  0  0
 17 16  2  0  0  0  0
 18 16  2  0  0  0  0
 20 21  1  0  0  0  0
M  RAD  3   2   2   3   3  19   2
M  END
