Coordinates from ORCA-job 4-NO2PhN2+~HSO4-_B3LYPG-6-31G_dp-CH-Scan-d09-49-n800
 OpenBabel11261919243D

 21 20  0  0  0  0  0  0  0  0999 V2000
   -1.9374   -0.3182   -0.1806 C   0  0  0  0  0  0  0  0  0  0  0  0
   -3.2392   -0.8119   -0.2640 N   0  0  0  0  0  0  0  0  0  0  0  0
   -4.2900   -1.1696   -0.3390 N   0  0  0  0  0  0  0  0  0  0  0  0
   -1.7660    1.0242   -0.5459 C   0  0  0  0  0  0  0  0  0  0  0  0
   -0.4213    1.4411   -0.4464 C   0  0  0  0  0  0  0  0  0  0  0  0
    0.5743    0.5679   -0.0291 C   0  0  0  0  0  0  0  0  0  0  0  0
    1.9753    1.0590    0.0544 N   0  0  0  0  0  0  0  0  0  0  0  0
    2.1837    2.2252   -0.2605 O   0  0  0  0  0  0  0  0  0  0  0  0
    2.8276    0.2592    0.4342 O   0  0  0  0  0  0  0  0  0  0  0  0
    0.3390   -0.7711    0.3251 C   0  0  0  0  0  0  0  0  0  0  0  0
   -0.9548   -1.2422    0.2499 C   0  0  0  0  0  0  0  0  0  0  0  0
   -2.8917    1.9546   -0.9516 H   0  0  0  0  0  0  0  0  0  0  0  0
   -0.1445    2.4594   -0.6960 H   0  0  0  0  0  0  0  0  0  0  0  0
    1.1619   -1.3965    0.6443 H   0  0  0  0  0  0  0  0  0  0  0  0
   -1.2058   -2.2648    0.5108 H   0  0  0  0  0  0  0  0  0  0  0  0
   -4.9983    2.5789   -0.3931 S   0  0  0  0  0  0  0  0  0  0  0  0
   -3.7309    2.6863   -1.2783 O   0  0  0  0  0  0  0  0  0  0  0  0
   -6.1841    2.9506   -1.1529 O   0  0  0  0  0  0  0  0  0  0  0  0
   -4.9703    1.3263    0.3685 O   0  0  0  0  0  0  0  0  0  0  0  0
   -4.7786    3.7432    0.7440 O   0  0  0  0  0  0  0  0  0  0  0  0
   -5.1955    4.5475    0.3949 H   0  0  0  0  0  0  0  0  0  0  0  0
  1 11  2  0  0  0  0
  2  1  1  0  0  0  0
  3  2  1  0  0  0  0
  4  5  2  0  0  0  0
  4  1  1  0  0  0  0
  5  6  1  0  0  0  0
  6  7  1  0  0  0  0
  6 10  2  0  0  0  0
  7  9  2  0  0  0  0
  8  7  2  0  0  0  0
 10 14  1  0  0  0  0
 11 10  1  0  0  0  0
 11 15  1  0  0  0  0
 13  5  1  0  0  0  0
 16 19  2  0  0  0  0
 16 20  1  0  0  0  0
 17 12  1  0  0  0  0
 17 16  1  0  0  0  0
 18 16  2  0  0  0  0
 21 20  1  0  0  0  0
M  RAD  3   2   2   3   3   4   2
M  END
