Coordinates from ORCA-job 4-NO2PhN2+~HSO4-_B3LYPG-6-31G_dp-CH-Scan-d09-49-n800
 OpenBabel11261919243D

 21 20  0  0  0  0  0  0  0  0999 V2000
   -1.5888   -0.3860   -0.0988 C   0  0  0  0  0  0  0  0  0  0  0  0
   -2.9359   -0.7799   -0.1616 N   0  0  0  0  0  0  0  0  0  0  0  0
   -4.0168   -1.0445   -0.2410 N   0  0  0  0  0  0  0  0  0  0  0  0
   -1.3722    0.9013   -0.5974 C   0  0  0  0  0  0  0  0  0  0  0  0
    0.0147    1.2237   -0.5069 C   0  0  0  0  0  0  0  0  0  0  0  0
    0.9471    0.3371    0.0110 C   0  0  0  0  0  0  0  0  0  0  0  0
    2.3766    0.7416    0.0748 N   0  0  0  0  0  0  0  0  0  0  0  0
    2.6710    1.8609   -0.3335 O   0  0  0  0  0  0  0  0  0  0  0  0
    3.1762   -0.0732    0.5346 O   0  0  0  0  0  0  0  0  0  0  0  0
    0.6276   -0.9509    0.4927 C   0  0  0  0  0  0  0  0  0  0  0  0
   -0.6898   -1.3436    0.4425 C   0  0  0  0  0  0  0  0  0  0  0  0
   -3.8471    3.0052   -1.5606 H   0  0  0  0  0  0  0  0  0  0  0  0
    0.3783    2.1886   -0.8475 H   0  0  0  0  0  0  0  0  0  0  0  0
    1.4089   -1.5889    0.8825 H   0  0  0  0  0  0  0  0  0  0  0  0
   -1.0123   -2.3192    0.7943 H   0  0  0  0  0  0  0  0  0  0  0  0
   -5.7062    2.8173   -0.5145 S   0  0  0  0  0  0  0  0  0  0  0  0
   -4.7216    3.4268   -1.6422 O   0  0  0  0  0  0  0  0  0  0  0  0
   -7.0391    3.2290   -0.8965 O   0  0  0  0  0  0  0  0  0  0  0  0
   -5.3348    1.4440   -0.2414 O   0  0  0  0  0  0  0  0  0  0  0  0
   -5.2617    3.6512    0.8088 O   0  0  0  0  0  0  0  0  0  0  0  0
   -5.7209    4.5084    0.7895 H   0  0  0  0  0  0  0  0  0  0  0  0
  1 11  2  0  0  0  0
  2  1  1  0  0  0  0
  3  2  1  0  0  0  0
  4  5  2  0  0  0  0
  4  1  1  0  0  0  0
  5  6  1  0  0  0  0
  6  7  1  0  0  0  0
  6 10  2  0  0  0  0
  7  9  2  0  0  0  0
  8  7  2  0  0  0  0
 10 14  1  0  0  0  0
 11 10  1  0  0  0  0
 11 15  1  0  0  0  0
 13  5  1  0  0  0  0
 16 19  2  0  0  0  0
 16 20  1  0  0  0  0
 17 12  1  0  0  0  0
 17 16  1  0  0  0  0
 18 16  2  0  0  0  0
 21 20  1  0  0  0  0
M  RAD  3   2   2   3   3   4   2
M  END
