Coordinates from ORCA-job 4-NO2PhN2+~HSO4-_B3LYPG-6-31G_dp-CH-Scan-d09-49-n800
 OpenBabel11261919243D

 21 20  0  0  0  0  0  0  0  0999 V2000
   -1.5809   -0.4302   -0.2592 C   0  0  0  0  0  0  0  0  0  0  0  0
   -2.9129   -0.8501   -0.4277 N   0  0  0  0  0  0  0  0  0  0  0  0
   -3.9781   -1.1288   -0.6088 N   0  0  0  0  0  0  0  0  0  0  0  0
   -1.3244    0.7933   -0.8804 C   0  0  0  0  0  0  0  0  0  0  0  0
    0.0424    1.1528   -0.6786 C   0  0  0  0  0  0  0  0  0  0  0  0
    0.9176    0.3541    0.0422 C   0  0  0  0  0  0  0  0  0  0  0  0
    2.3269    0.7943    0.2171 N   0  0  0  0  0  0  0  0  0  0  0  0
    2.6575    1.8633   -0.2875 O   0  0  0  0  0  0  0  0  0  0  0  0
    3.0761    0.0583    0.8591 O   0  0  0  0  0  0  0  0  0  0  0  0
    0.5569   -0.8757    0.6355 C   0  0  0  0  0  0  0  0  0  0  0  0
   -0.7429   -1.3007    0.4870 C   0  0  0  0  0  0  0  0  0  0  0  0
   -4.1737    3.0872   -1.9045 H   0  0  0  0  0  0  0  0  0  0  0  0
    0.4345    2.0782   -1.0907 H   0  0  0  0  0  0  0  0  0  0  0  0
    1.2958   -1.4467    1.1814 H   0  0  0  0  0  0  0  0  0  0  0  0
   -1.0944   -2.2364    0.9117 H   0  0  0  0  0  0  0  0  0  0  0  0
   -5.6570    2.8008   -0.3834 S   0  0  0  0  0  0  0  0  0  0  0  0
   -5.0442    3.4806   -1.7190 O   0  0  0  0  0  0  0  0  0  0  0  0
   -7.0489    3.1920   -0.3545 O   0  0  0  0  0  0  0  0  0  0  0  0
   -5.2020    1.4291   -0.2914 O   0  0  0  0  0  0  0  0  0  0  0  0
   -4.8659    3.5963    0.7921 O   0  0  0  0  0  0  0  0  0  0  0  0
   -5.3293    4.4372    0.9482 H   0  0  0  0  0  0  0  0  0  0  0  0
  1 11  2  0  0  0  0
  2  1  1  0  0  0  0
  3  2  1  0  0  0  0
  4  5  2  0  0  0  0
  4  1  1  0  0  0  0
  5  6  1  0  0  0  0
  6  7  1  0  0  0  0
  6 10  2  0  0  0  0
  7  9  2  0  0  0  0
  8  7  2  0  0  0  0
 10 14  1  0  0  0  0
 11 10  1  0  0  0  0
 11 15  1  0  0  0  0
 12 17  1  0  0  0  0
 13  5  1  0  0  0  0
 16 18  2  0  0  0  0
 16 19  2  0  0  0  0
 16 20  1  0  0  0  0
 17 16  1  0  0  0  0
 20 21  1  0  0  0  0
M  RAD  3   2   2   3   3   4   2
M  END
