Coordinates from ORCA-job 4-NO2PhN2+~HSO4-_B3LYPG-6-31G_dp-CH-Scan-d09-49-n800
 OpenBabel11261919243D

 21 20  0  0  0  0  0  0  0  0999 V2000
   -1.6804   -0.4967   -0.6778 C   0  0  0  0  0  0  0  0  0  0  0  0
   -2.9146   -1.0308   -1.0902 N   0  0  0  0  0  0  0  0  0  0  0  0
   -3.8852   -1.4069   -1.4928 N   0  0  0  0  0  0  0  0  0  0  0  0
   -1.2197    0.4786   -1.5618 C   0  0  0  0  0  0  0  0  0  0  0  0
    0.0342    0.9833   -1.1023 C   0  0  0  0  0  0  0  0  0  0  0  0
    0.6304    0.5246    0.0632 C   0  0  0  0  0  0  0  0  0  0  0  0
    1.9313    1.1035    0.4905 N   0  0  0  0  0  0  0  0  0  0  0  0
    2.4195    1.9879   -0.2073 O   0  0  0  0  0  0  0  0  0  0  0  0
    2.4415    0.6592    1.5190 O   0  0  0  0  0  0  0  0  0  0  0  0
    0.0764   -0.4757    0.8930 C   0  0  0  0  0  0  0  0  0  0  0  0
   -1.1301   -1.0214    0.5200 C   0  0  0  0  0  0  0  0  0  0  0  0
   -4.6326    2.9924   -2.0706 H   0  0  0  0  0  0  0  0  0  0  0  0
    0.5570    1.7534   -1.6626 H   0  0  0  0  0  0  0  0  0  0  0  0
    0.6014   -0.7845    1.7867 H   0  0  0  0  0  0  0  0  0  0  0  0
   -1.6192   -1.7941    1.1061 H   0  0  0  0  0  0  0  0  0  0  0  0
   -5.1184    2.5619   -0.0262 S   0  0  0  0  0  0  0  0  0  0  0  0
   -5.2583    3.3668   -1.4262 O   0  0  0  0  0  0  0  0  0  0  0  0
   -6.2747    2.9395    0.7548 O   0  0  0  0  0  0  0  0  0  0  0  0
   -4.7436    1.1903   -0.3040 O   0  0  0  0  0  0  0  0  0  0  0  0
   -3.7966    3.2439    0.6229 O   0  0  0  0  0  0  0  0  0  0  0  0
   -4.0649    4.0737    1.0543 H   0  0  0  0  0  0  0  0  0  0  0  0
  1 11  2  0  0  0  0
  2  1  1  0  0  0  0
  3  2  1  0  0  0  0
  4  5  2  0  0  0  0
  4  1  1  0  0  0  0
  5  6  1  0  0  0  0
  6  7  1  0  0  0  0
  6 10  2  0  0  0  0
  7  9  2  0  0  0  0
  8  7  2  0  0  0  0
 10 14  1  0  0  0  0
 11 10  1  0  0  0  0
 11 15  1  0  0  0  0
 12 17  1  0  0  0  0
 13  5  1  0  0  0  0
 16 20  1  0  0  0  0
 16 18  2  0  0  0  0
 17 16  1  0  0  0  0
 19 16  2  0  0  0  0
 20 21  1  0  0  0  0
M  RAD  3   2   2   3   3   4   2
M  END
