Coordinates from ORCA-job 4-NO2PhN2+~HSO4-_B3LYPG-6-31G_dp-CH-Scan-d09-49-n800
 OpenBabel11261919243D

 21 20  0  0  0  0  0  0  0  0999 V2000
   -2.0124    0.0506   -0.3402 C   0  0  0  0  0  0  0  0  0  0  0  0
   -3.3640   -0.2212   -0.5303 N   0  0  0  0  0  0  0  0  0  0  0  0
   -4.4341   -0.4696   -0.7484 N   0  0  0  0  0  0  0  0  0  0  0  0
   -1.5187    1.3214   -0.6715 C   0  0  0  0  0  0  0  0  0  0  0  0
   -0.1518    1.5272   -0.5079 C   0  0  0  0  0  0  0  0  0  0  0  0
    0.6395    0.4922   -0.0155 C   0  0  0  0  0  0  0  0  0  0  0  0
    2.0931    0.7319    0.1625 N   0  0  0  0  0  0  0  0  0  0  0  0
    2.5206    1.8381   -0.1472 O   0  0  0  0  0  0  0  0  0  0  0  0
    2.7616   -0.1977    0.6059 O   0  0  0  0  0  0  0  0  0  0  0  0
    0.1360   -0.7657    0.3206 C   0  0  0  0  0  0  0  0  0  0  0  0
   -1.2195   -1.0017    0.1494 C   0  0  0  0  0  0  0  0  0  0  0  0
   -2.2481    2.1601   -1.0536 H   0  0  0  0  0  0  0  0  0  0  0  0
    0.3003    2.4818   -0.7455 H   0  0  0  0  0  0  0  0  0  0  0  0
    0.8038   -1.5280    0.6998 H   0  0  0  0  0  0  0  0  0  0  0  0
   -1.6598   -1.9624    0.3901 H   0  0  0  0  0  0  0  0  0  0  0  0
   -4.7338    2.5359   -0.2711 S   0  0  0  0  0  0  0  0  0  0  0  0
   -3.9107    3.1531   -1.3312 O   0  0  0  0  0  0  0  0  0  0  0  0
   -5.7168    1.5134   -0.7528 O   0  0  0  0  0  0  0  0  0  0  0  0
   -3.9351    2.0124    0.8669 O   0  0  0  0  0  0  0  0  0  0  0  0
   -5.6435    3.7835    0.2866 O   0  0  0  0  0  0  0  0  0  0  0  0
   -6.3533    3.3938    0.8221 H   0  0  0  0  0  0  0  0  0  0  0  0
  1 11  2  0  0  0  0
  2  1  1  0  0  0  0
  3  2  1  0  0  0  0
  4  5  2  0  0  0  0
  4  1  1  0  0  0  0
  5  6  1  0  0  0  0
  6  7  1  0  0  0  0
  6 10  2  0  0  0  0
  7  9  2  0  0  0  0
  8  7  2  0  0  0  0
 10 14  1  0  0  0  0
 11 10  1  0  0  0  0
 11 15  1  0  0  0  0
 12  4  1  0  0  0  0
 13  5  1  0  0  0  0
 16 20  1  0  0  0  0
 16 19  1  0  0  0  0
 17 16  2  0  0  0  0
 18 16  2  0  0  0  0
 20 21  1  0  0  0  0
M  RAD  3   2   2   3   3  19   2
M  END
