Coordinates from ORCA-job 4-NO2PhN2+~HSO4-_B3LYPG-6-31G_dp-CH-Scan-d09-49-n800
 OpenBabel11261919243D

 21 20  0  0  0  0  0  0  0  0999 V2000
   -1.6655   -0.4797   -0.5355 C   0  0  0  0  0  0  0  0  0  0  0  0
   -2.9349   -0.9839   -0.8715 N   0  0  0  0  0  0  0  0  0  0  0  0
   -3.9418   -1.3314   -1.2045 N   0  0  0  0  0  0  0  0  0  0  0  0
   -1.3167    0.6216   -1.3177 C   0  0  0  0  0  0  0  0  0  0  0  0
   -0.0194    1.0824   -0.9403 C   0  0  0  0  0  0  0  0  0  0  0  0
    0.7136    0.4757    0.0689 C   0  0  0  0  0  0  0  0  0  0  0  0
    2.0548    1.0144    0.4169 N   0  0  0  0  0  0  0  0  0  0  0  0
    2.4506    2.0008   -0.1975 O   0  0  0  0  0  0  0  0  0  0  0  0
    2.6851    0.4405    1.3049 O   0  0  0  0  0  0  0  0  0  0  0  0
    0.2667   -0.6434    0.8060 C   0  0  0  0  0  0  0  0  0  0  0  0
   -0.9729   -1.1565    0.5022 C   0  0  0  0  0  0  0  0  0  0  0  0
   -4.4535    2.9607   -2.0925 H   0  0  0  0  0  0  0  0  0  0  0  0
    0.4297    1.9352   -1.4411 H   0  0  0  0  0  0  0  0  0  0  0  0
    0.8965   -1.0648    1.5780 H   0  0  0  0  0  0  0  0  0  0  0  0
   -1.3840   -2.0162    1.0231 H   0  0  0  0  0  0  0  0  0  0  0  0
   -5.2984    2.6589   -0.1428 S   0  0  0  0  0  0  0  0  0  0  0  0
   -5.1800    3.3726   -1.5927 O   0  0  0  0  0  0  0  0  0  0  0  0
   -6.5606    3.1044    0.4037 O   0  0  0  0  0  0  0  0  0  0  0  0
   -4.9180    1.2667   -0.2626 O   0  0  0  0  0  0  0  0  0  0  0  0
   -4.0894    3.3656    0.6793 O   0  0  0  0  0  0  0  0  0  0  0  0
   -4.4084    4.2252    1.0045 H   0  0  0  0  0  0  0  0  0  0  0  0
  1 11  2  0  0  0  0
  2  1  1  0  0  0  0
  3  2  1  0  0  0  0
  4  5  2  0  0  0  0
  4  1  1  0  0  0  0
  5  6  1  0  0  0  0
  6  7  1  0  0  0  0
  6 10  2  0  0  0  0
  7  9  2  0  0  0  0
  8  7  2  0  0  0  0
 10 14  1  0  0  0  0
 11 10  1  0  0  0  0
 11 15  1  0  0  0  0
 12 17  1  0  0  0  0
 13  5  1  0  0  0  0
 16 18  2  0  0  0  0
 16 20  1  0  0  0  0
 17 16  1  0  0  0  0
 19 16  2  0  0  0  0
 20 21  1  0  0  0  0
M  RAD  3   2   2   3   3   4   2
M  END
