Coordinates from ORCA-job 4-NO2PhN2+~HSO4-_B3LYPG-6-31G_dp-CH-Scan-d09-49-n800
 OpenBabel11261919243D

 21 20  0  0  0  0  0  0  0  0999 V2000
   -1.5689   -0.4330   -0.2790 C   0  0  0  0  0  0  0  0  0  0  0  0
   -2.9005   -0.8499   -0.4604 N   0  0  0  0  0  0  0  0  0  0  0  0
   -3.9646   -1.1254   -0.6532 N   0  0  0  0  0  0  0  0  0  0  0  0
   -1.2988    0.7765   -0.9207 C   0  0  0  0  0  0  0  0  0  0  0  0
    0.0664    1.1351   -0.7057 C   0  0  0  0  0  0  0  0  0  0  0  0
    0.9272    0.3482    0.0449 C   0  0  0  0  0  0  0  0  0  0  0  0
    2.3353    0.7868    0.2327 N   0  0  0  0  0  0  0  0  0  0  0  0
    2.6778    1.8444   -0.2878 O   0  0  0  0  0  0  0  0  0  0  0  0
    3.0720    0.0609    0.9001 O   0  0  0  0  0  0  0  0  0  0  0  0
    0.5527   -0.8681    0.6573 C   0  0  0  0  0  0  0  0  0  0  0  0
   -0.7463   -1.2916    0.4973 C   0  0  0  0  0  0  0  0  0  0  0  0
   -4.2419    3.1225   -1.9376 H   0  0  0  0  0  0  0  0  0  0  0  0
    0.4684    2.0504   -1.1306 H   0  0  0  0  0  0  0  0  0  0  0  0
    1.2810   -1.4304    1.2259 H   0  0  0  0  0  0  0  0  0  0  0  0
   -1.1077   -2.2175    0.9351 H   0  0  0  0  0  0  0  0  0  0  0  0
   -5.6678    2.8016   -0.3691 S   0  0  0  0  0  0  0  0  0  0  0  0
   -5.1097    3.5038   -1.7176 O   0  0  0  0  0  0  0  0  0  0  0  0
   -7.0635    3.1720   -0.2899 O   0  0  0  0  0  0  0  0  0  0  0  0
   -5.1899    1.4360   -0.3072 O   0  0  0  0  0  0  0  0  0  0  0  0
   -4.8491    3.5971    0.7871 O   0  0  0  0  0  0  0  0  0  0  0  0
   -5.3186    4.4298    0.9672 H   0  0  0  0  0  0  0  0  0  0  0  0
  1 11  2  0  0  0  0
  2  1  1  0  0  0  0
  3  2  1  0  0  0  0
  4  5  2  0  0  0  0
  4  1  1  0  0  0  0
  5  6  1  0  0  0  0
  6  7  1  0  0  0  0
  6 10  2  0  0  0  0
  7  9  2  0  0  0  0
  8  7  2  0  0  0  0
 10 14  1  0  0  0  0
 11 10  1  0  0  0  0
 11 15  1  0  0  0  0
 12 17  1  0  0  0  0
 13  5  1  0  0  0  0
 16 19  2  0  0  0  0
 16 18  2  0  0  0  0
 16 20  1  0  0  0  0
 17 16  1  0  0  0  0
 20 21  1  0  0  0  0
M  RAD  3   2   2   3   3   4   2
M  END
