Coordinates from ORCA-job 4-NO2PhN2+~HSO4-_B3LYPG-6-31G_dp-CH-Scan-d09-49-n800
 OpenBabel11261919243D

 21 20  0  0  0  0  0  0  0  0999 V2000
   -1.6318   -0.3804   -0.0970 C   0  0  0  0  0  0  0  0  0  0  0  0
   -2.9725   -0.7921   -0.1558 N   0  0  0  0  0  0  0  0  0  0  0  0
   -4.0489   -1.0752   -0.2294 N   0  0  0  0  0  0  0  0  0  0  0  0
   -1.4294    0.9159   -0.5801 C   0  0  0  0  0  0  0  0  0  0  0  0
   -0.0463    1.2521   -0.4950 C   0  0  0  0  0  0  0  0  0  0  0  0
    0.8991    0.3686    0.0044 C   0  0  0  0  0  0  0  0  0  0  0  0
    2.3249    0.7871    0.0623 N   0  0  0  0  0  0  0  0  0  0  0  0
    2.6047    1.9129   -0.3382 O   0  0  0  0  0  0  0  0  0  0  0  0
    3.1354   -0.0236    0.5096 O   0  0  0  0  0  0  0  0  0  0  0  0
    0.5961   -0.9280    0.4721 C   0  0  0  0  0  0  0  0  0  0  0  0
   -0.7176   -1.3337    0.4261 C   0  0  0  0  0  0  0  0  0  0  0  0
   -3.7223    2.8756   -1.4807 H   0  0  0  0  0  0  0  0  0  0  0  0
    0.3044    2.2252   -0.8254 H   0  0  0  0  0  0  0  0  0  0  0  0
    1.3864   -1.5629    0.8489 H   0  0  0  0  0  0  0  0  0  0  0  0
   -1.0272   -2.3167    0.7683 H   0  0  0  0  0  0  0  0  0  0  0  0
   -5.6311    2.7926   -0.5143 S   0  0  0  0  0  0  0  0  0  0  0  0
   -4.5733    3.3360   -1.6055 O   0  0  0  0  0  0  0  0  0  0  0  0
   -6.9270    3.2575   -0.9584 O   0  0  0  0  0  0  0  0  0  0  0  0
   -5.3387    1.4079   -0.2025 O   0  0  0  0  0  0  0  0  0  0  0  0
   -5.2066    3.6270    0.8159 O   0  0  0  0  0  0  0  0  0  0  0  0
   -5.6252    4.5033    0.7637 H   0  0  0  0  0  0  0  0  0  0  0  0
  1 11  2  0  0  0  0
  2  1  1  0  0  0  0
  3  2  1  0  0  0  0
  4  5  2  0  0  0  0
  4  1  1  0  0  0  0
  5  6  1  0  0  0  0
  6  7  1  0  0  0  0
  6 10  2  0  0  0  0
  7  9  2  0  0  0  0
  8  7  2  0  0  0  0
 10 14  1  0  0  0  0
 11 10  1  0  0  0  0
 11 15  1  0  0  0  0
 13  5  1  0  0  0  0
 16 19  2  0  0  0  0
 16 20  1  0  0  0  0
 17 12  1  0  0  0  0
 17 16  1  0  0  0  0
 18 16  2  0  0  0  0
 21 20  1  0  0  0  0
M  RAD  3   2   2   3   3   4   2
M  END
