Coordinates from ORCA-job 4-NO2PhN2+~HSO4-_B3LYPG-6-31G_dp-CH-Scan-d09-49-n800
 OpenBabel11261919243D

 21 20  0  0  0  0  0  0  0  0999 V2000
   -1.6799   -0.4963   -0.6843 C   0  0  0  0  0  0  0  0  0  0  0  0
   -2.9129   -1.0309   -1.0998 N   0  0  0  0  0  0  0  0  0  0  0  0
   -3.8822   -1.4085   -1.5039 N   0  0  0  0  0  0  0  0  0  0  0  0
   -1.2123    0.4714   -1.5728 C   0  0  0  0  0  0  0  0  0  0  0  0
    0.0401    0.9770   -1.1101 C   0  0  0  0  0  0  0  0  0  0  0  0
    0.6291    0.5254    0.0618 C   0  0  0  0  0  0  0  0  0  0  0  0
    1.9289    1.1047    0.4920 N   0  0  0  0  0  0  0  0  0  0  0  0
    2.4221    1.9839   -0.2089 O   0  0  0  0  0  0  0  0  0  0  0  0
    2.4300    0.6705    1.5292 O   0  0  0  0  0  0  0  0  0  0  0  0
    0.0684   -0.4676    0.8959 C   0  0  0  0  0  0  0  0  0  0  0  0
   -1.1373   -1.0134    0.5205 C   0  0  0  0  0  0  0  0  0  0  0  0
   -4.6398    2.9939   -2.0669 H   0  0  0  0  0  0  0  0  0  0  0  0
    0.5675    1.7420   -1.6732 H   0  0  0  0  0  0  0  0  0  0  0  0
    0.5879   -0.7708    1.7947 H   0  0  0  0  0  0  0  0  0  0  0  0
   -1.6314   -1.7805    1.1097 H   0  0  0  0  0  0  0  0  0  0  0  0
   -5.1137    2.5576   -0.0209 S   0  0  0  0  0  0  0  0  0  0  0  0
   -5.2618    3.3663   -1.4177 O   0  0  0  0  0  0  0  0  0  0  0  0
   -6.2660    2.9323    0.7676 O   0  0  0  0  0  0  0  0  0  0  0  0
   -4.7398    1.1869   -0.3047 O   0  0  0  0  0  0  0  0  0  0  0  0
   -3.7887    3.2382    0.6227 O   0  0  0  0  0  0  0  0  0  0  0  0
   -4.0547    4.0667    1.0579 H   0  0  0  0  0  0  0  0  0  0  0  0
  1 11  2  0  0  0  0
  2  1  1  0  0  0  0
  3  2  1  0  0  0  0
  4  5  2  0  0  0  0
  4  1  1  0  0  0  0
  5  6  1  0  0  0  0
  6  7  1  0  0  0  0
  6 10  2  0  0  0  0
  7  9  2  0  0  0  0
  8  7  2  0  0  0  0
 10 14  1  0  0  0  0
 11 10  1  0  0  0  0
 11 15  1  0  0  0  0
 12 17  1  0  0  0  0
 13  5  1  0  0  0  0
 16 20  1  0  0  0  0
 16 18  2  0  0  0  0
 17 16  1  0  0  0  0
 19 16  2  0  0  0  0
 20 21  1  0  0  0  0
M  RAD  3   2   2   3   3   4   2
M  END
