Coordinates from ORCA-job 4-NO2PhN2+~HSO4-_B3LYPG-6-31G_dp-CH-Scan-d09-49-n800
 OpenBabel11261919243D

 21 20  0  0  0  0  0  0  0  0999 V2000
   -1.6413   -0.5126   -1.0474 C   0  0  0  0  0  0  0  0  0  0  0  0
   -2.8406   -1.1247   -1.4646 N   0  0  0  0  0  0  0  0  0  0  0  0
   -3.7421   -1.6356   -1.8775 N   0  0  0  0  0  0  0  0  0  0  0  0
   -0.6339   -0.6549   -1.9979 C   0  0  0  0  0  0  0  0  0  0  0  0
    0.5482    0.0116   -1.5438 C   0  0  0  0  0  0  0  0  0  0  0  0
    0.5888    0.7024   -0.3434 C   0  0  0  0  0  0  0  0  0  0  0  0
    1.8355    1.4098    0.0509 N   0  0  0  0  0  0  0  0  0  0  0  0
    2.7942    1.3460   -0.7117 O   0  0  0  0  0  0  0  0  0  0  0  0
    1.8271    2.0176    1.1222 O   0  0  0  0  0  0  0  0  0  0  0  0
   -0.4941    0.7699    0.5647 C   0  0  0  0  0  0  0  0  0  0  0  0
   -1.6644    0.1315    0.2186 C   0  0  0  0  0  0  0  0  0  0  0  0
   -2.9043    2.7807    0.0400 H   0  0  0  0  0  0  0  0  0  0  0  0
    1.4525   -0.0033   -2.1459 H   0  0  0  0  0  0  0  0  0  0  0  0
   -0.3705    1.2903    1.5050 H   0  0  0  0  0  0  0  0  0  0  0  0
   -2.5301    0.1063    0.8730 H   0  0  0  0  0  0  0  0  0  0  0  0
   -4.9838    2.2852    0.2282 S   0  0  0  0  0  0  0  0  0  0  0  0
   -3.7283    3.2983    0.0986 O   0  0  0  0  0  0  0  0  0  0  0  0
   -6.1621    3.0782   -0.0320 O   0  0  0  0  0  0  0  0  0  0  0  0
   -4.6680    1.0494   -0.4623 O   0  0  0  0  0  0  0  0  0  0  0  0
   -4.9373    1.9011    1.8076 O   0  0  0  0  0  0  0  0  0  0  0  0
   -5.3922    2.6018    2.3067 H   0  0  0  0  0  0  0  0  0  0  0  0
  1 11  2  0  0  0  0
  2  1  1  0  0  0  0
  3  2  1  0  0  0  0
  4  5  2  0  0  0  0
  4  1  1  0  0  0  0
  5  6  1  0  0  0  0
  6  7  1  0  0  0  0
  6 10  2  0  0  0  0
  7  9  2  0  0  0  0
  8  7  2  0  0  0  0
 10 14  1  0  0  0  0
 11 10  1  0  0  0  0
 11 15  1  0  0  0  0
 12 17  1  0  0  0  0
 13  5  1  0  0  0  0
 16 20  1  0  0  0  0
 17 16  1  0  0  0  0
 18 16  2  0  0  0  0
 19 16  2  0  0  0  0
 20 21  1  0  0  0  0
M  RAD  3   2   2   3   3   4   2
M  END
