Coordinates from ORCA-job 4-NO2PhN2+~HSO4-_B3LYPG-6-31G_dp-CH-Scan-d09-49-n800
 OpenBabel11261919243D

 21 20  0  0  0  0  0  0  0  0999 V2000
   -1.5699   -0.4327   -0.2764 C   0  0  0  0  0  0  0  0  0  0  0  0
   -2.9016   -0.8499   -0.4560 N   0  0  0  0  0  0  0  0  0  0  0  0
   -3.9657   -1.1257   -0.6480 N   0  0  0  0  0  0  0  0  0  0  0  0
   -1.3013    0.7784   -0.9157 C   0  0  0  0  0  0  0  0  0  0  0  0
    0.0642    1.1370   -0.7024 C   0  0  0  0  0  0  0  0  0  0  0  0
    0.9267    0.3485    0.0446 C   0  0  0  0  0  0  0  0  0  0  0  0
    2.3350    0.7871    0.2307 N   0  0  0  0  0  0  0  0  0  0  0  0
    2.6762    1.8459   -0.2882 O   0  0  0  0  0  0  0  0  0  0  0  0
    3.0732    0.0598    0.8948 O   0  0  0  0  0  0  0  0  0  0  0  0
    0.5537   -0.8693    0.6548 C   0  0  0  0  0  0  0  0  0  0  0  0
   -0.7454   -1.2928    0.4964 C   0  0  0  0  0  0  0  0  0  0  0  0
   -4.2346    3.1196   -1.9338 H   0  0  0  0  0  0  0  0  0  0  0  0
    0.4650    2.0534   -1.1259 H   0  0  0  0  0  0  0  0  0  0  0  0
    1.2833   -1.4328    1.2207 H   0  0  0  0  0  0  0  0  0  0  0  0
   -1.1057   -2.2198    0.9326 H   0  0  0  0  0  0  0  0  0  0  0  0
   -5.6676    2.8019   -0.3710 S   0  0  0  0  0  0  0  0  0  0  0  0
   -5.1030    3.5019   -1.7179 O   0  0  0  0  0  0  0  0  0  0  0  0
   -7.0630    3.1743   -0.2980 O   0  0  0  0  0  0  0  0  0  0  0  0
   -5.1919    1.4357   -0.3055 O   0  0  0  0  0  0  0  0  0  0  0  0
   -4.8526    3.5975    0.7878 O   0  0  0  0  0  0  0  0  0  0  0  0
   -5.3217    4.4311    0.9650 H   0  0  0  0  0  0  0  0  0  0  0  0
  1 11  2  0  0  0  0
  2  1  1  0  0  0  0
  3  2  1  0  0  0  0
  4  5  2  0  0  0  0
  4  1  1  0  0  0  0
  5  6  1  0  0  0  0
  6  7  1  0  0  0  0
  6 10  2  0  0  0  0
  7  9  2  0  0  0  0
  8  7  2  0  0  0  0
 10 14  1  0  0  0  0
 11 10  1  0  0  0  0
 11 15  1  0  0  0  0
 12 17  1  0  0  0  0
 13  5  1  0  0  0  0
 16 19  2  0  0  0  0
 16 18  2  0  0  0  0
 16 20  1  0  0  0  0
 17 16  1  0  0  0  0
 20 21  1  0  0  0  0
M  RAD  3   2   2   3   3   4   2
M  END
