Coordinates from ORCA-job 4-NO2PhN2+~HSO4-_B3LYPG-6-31G_dp-CH-Scan-d09-49-n800
 OpenBabel11261919243D

 21 20  0  0  0  0  0  0  0  0999 V2000
   -1.6623   -0.3772   -0.1020 C   0  0  0  0  0  0  0  0  0  0  0  0
   -2.9978   -0.8022   -0.1615 N   0  0  0  0  0  0  0  0  0  0  0  0
   -4.0710   -1.0975   -0.2334 N   0  0  0  0  0  0  0  0  0  0  0  0
   -1.4689    0.9244   -0.5764 C   0  0  0  0  0  0  0  0  0  0  0  0
   -0.0890    1.2712   -0.4909 C   0  0  0  0  0  0  0  0  0  0  0  0
    0.8641    0.3916    0.0010 C   0  0  0  0  0  0  0  0  0  0  0  0
    2.2866    0.8210    0.0592 N   0  0  0  0  0  0  0  0  0  0  0  0
    2.5567    1.9513   -0.3347 O   0  0  0  0  0  0  0  0  0  0  0  0
    3.1034    0.0148    0.5031 O   0  0  0  0  0  0  0  0  0  0  0  0
    0.5718   -0.9100    0.4606 C   0  0  0  0  0  0  0  0  0  0  0  0
   -0.7387   -1.3257    0.4134 C   0  0  0  0  0  0  0  0  0  0  0  0
   -3.6461    2.7810   -1.4360 H   0  0  0  0  0  0  0  0  0  0  0  0
    0.2532    2.2492   -0.8152 H   0  0  0  0  0  0  0  0  0  0  0  0
    1.3674   -1.5413    0.8323 H   0  0  0  0  0  0  0  0  0  0  0  0
   -1.0399   -2.3133    0.7497 H   0  0  0  0  0  0  0  0  0  0  0  0
   -5.5763    2.7738   -0.5082 S   0  0  0  0  0  0  0  0  0  0  0  0
   -4.4822    3.2649   -1.5851 O   0  0  0  0  0  0  0  0  0  0  0  0
   -6.8490    3.2726   -0.9823 O   0  0  0  0  0  0  0  0  0  0  0  0
   -5.3366    1.3852   -0.1697 O   0  0  0  0  0  0  0  0  0  0  0  0
   -5.1509    3.6136    0.8189 O   0  0  0  0  0  0  0  0  0  0  0  0
   -5.5412    4.5014    0.7460 H   0  0  0  0  0  0  0  0  0  0  0  0
  1 11  2  0  0  0  0
  2  1  1  0  0  0  0
  3  2  1  0  0  0  0
  4  5  2  0  0  0  0
  4  1  1  0  0  0  0
  5  6  1  0  0  0  0
  6  7  1  0  0  0  0
  6 10  2  0  0  0  0
  7  9  2  0  0  0  0
  8  7  2  0  0  0  0
 10 14  1  0  0  0  0
 11 10  1  0  0  0  0
 11 15  1  0  0  0  0
 13  5  1  0  0  0  0
 16 19  2  0  0  0  0
 16 20  1  0  0  0  0
 17 12  1  0  0  0  0
 17 16  1  0  0  0  0
 18 16  2  0  0  0  0
 21 20  1  0  0  0  0
M  RAD  3   2   2   3   3   4   2
M  END
