Coordinates from ORCA-job 4-NO2PhN2+~HSO4-_B3LYPG-6-31G_dp-CH-Scan-d09-49-n800
 OpenBabel11261919243D

 21 20  0  0  0  0  0  0  0  0999 V2000
   -1.6480   -0.3781   -0.1000 C   0  0  0  0  0  0  0  0  0  0  0  0
   -2.9858   -0.7969   -0.1614 N   0  0  0  0  0  0  0  0  0  0  0  0
   -4.0604   -1.0871   -0.2320 N   0  0  0  0  0  0  0  0  0  0  0  0
   -1.4500    0.9214   -0.5773 C   0  0  0  0  0  0  0  0  0  0  0  0
   -0.0688    1.2636   -0.4903 C   0  0  0  0  0  0  0  0  0  0  0  0
    0.8804    0.3819    0.0055 C   0  0  0  0  0  0  0  0  0  0  0  0
    2.3042    0.8066    0.0656 N   0  0  0  0  0  0  0  0  0  0  0  0
    2.5809    1.9303   -0.3425 O   0  0  0  0  0  0  0  0  0  0  0  0
    3.1196   -0.0065    0.4995 O   0  0  0  0  0  0  0  0  0  0  0  0
    0.5828   -0.9177    0.4676 C   0  0  0  0  0  0  0  0  0  0  0  0
   -0.7291   -1.3290    0.4194 C   0  0  0  0  0  0  0  0  0  0  0  0
   -3.6820    2.8251   -1.4571 H   0  0  0  0  0  0  0  0  0  0  0  0
    0.2775    2.2396   -0.8163 H   0  0  0  0  0  0  0  0  0  0  0  0
    1.3756   -1.5508    0.8421 H   0  0  0  0  0  0  0  0  0  0  0  0
   -1.0345   -2.3147    0.7574 H   0  0  0  0  0  0  0  0  0  0  0  0
   -5.6021    2.7820   -0.5112 S   0  0  0  0  0  0  0  0  0  0  0  0
   -4.5251    3.2978   -1.5952 O   0  0  0  0  0  0  0  0  0  0  0  0
   -6.8860    3.2649   -0.9713 O   0  0  0  0  0  0  0  0  0  0  0  0
   -5.3378    1.3949   -0.1844 O   0  0  0  0  0  0  0  0  0  0  0  0
   -5.1772    3.6197    0.8171 O   0  0  0  0  0  0  0  0  0  0  0  0
   -5.5809    4.5021    0.7537 H   0  0  0  0  0  0  0  0  0  0  0  0
  1 11  2  0  0  0  0
  2  1  1  0  0  0  0
  3  2  1  0  0  0  0
  4  5  2  0  0  0  0
  4  1  1  0  0  0  0
  5  6  1  0  0  0  0
  6  7  1  0  0  0  0
  6 10  2  0  0  0  0
  7  9  2  0  0  0  0
  8  7  2  0  0  0  0
 10 14  1  0  0  0  0
 11 10  1  0  0  0  0
 11 15  1  0  0  0  0
 13  5  1  0  0  0  0
 16 19  2  0  0  0  0
 16 20  1  0  0  0  0
 17 12  1  0  0  0  0
 17 16  1  0  0  0  0
 18 16  2  0  0  0  0
 21 20  1  0  0  0  0
M  RAD  3   2   2   3   3   4   2
M  END
