Coordinates from ORCA-job 4-NO2PhN2+~HSO4-_B3LYPG-6-31G_dp-CH-Scan-d09-49-n800
 OpenBabel11261919243D

 21 20  0  0  0  0  0  0  0  0999 V2000
   -1.7680   -0.3672   -0.1235 C   0  0  0  0  0  0  0  0  0  0  0  0
   -3.0866   -0.8333   -0.1882 N   0  0  0  0  0  0  0  0  0  0  0  0
   -4.1478   -1.1666   -0.2603 N   0  0  0  0  0  0  0  0  0  0  0  0
   -1.6045    0.9527   -0.5611 C   0  0  0  0  0  0  0  0  0  0  0  0
   -0.2379    1.3380   -0.4705 C   0  0  0  0  0  0  0  0  0  0  0  0
    0.7413    0.4720   -0.0060 C   0  0  0  0  0  0  0  0  0  0  0  0
    2.1512    0.9403    0.0595 N   0  0  0  0  0  0  0  0  0  0  0  0
    2.3868    2.0868   -0.3079 O   0  0  0  0  0  0  0  0  0  0  0  0
    2.9910    0.1454    0.4791 O   0  0  0  0  0  0  0  0  0  0  0  0
    0.4864   -0.8481    0.4174 C   0  0  0  0  0  0  0  0  0  0  0  0
   -0.8127   -1.2990    0.3621 C   0  0  0  0  0  0  0  0  0  0  0  0
   -3.4075    2.4475   -1.2871 H   0  0  0  0  0  0  0  0  0  0  0  0
    0.0730    2.3341   -0.7686 H   0  0  0  0  0  0  0  0  0  0  0  0
    1.2999   -1.4676    0.7696 H   0  0  0  0  0  0  0  0  0  0  0  0
   -1.0842   -2.3032    0.6723 H   0  0  0  0  0  0  0  0  0  0  0  0
   -5.3769    2.7057   -0.4800 S   0  0  0  0  0  0  0  0  0  0  0  0
   -4.1934    2.9994   -1.5178 O   0  0  0  0  0  0  0  0  0  0  0  0
   -6.5723    3.2924   -1.0489 O   0  0  0  0  0  0  0  0  0  0  0  0
   -5.3092    1.3269   -0.0303 O   0  0  0  0  0  0  0  0  0  0  0  0
   -4.9370    3.5905    0.8157 O   0  0  0  0  0  0  0  0  0  0  0  0
   -5.2384    4.5023    0.6633 H   0  0  0  0  0  0  0  0  0  0  0  0
  1 11  2  0  0  0  0
  2  1  1  0  0  0  0
  3  2  1  0  0  0  0
  4  5  2  0  0  0  0
  4  1  1  0  0  0  0
  5  6  1  0  0  0  0
  6  7  1  0  0  0  0
  6 10  2  0  0  0  0
  7  9  2  0  0  0  0
  8  7  2  0  0  0  0
 10 14  1  0  0  0  0
 11 10  1  0  0  0  0
 11 15  1  0  0  0  0
 13  5  1  0  0  0  0
 16 19  2  0  0  0  0
 16 20  1  0  0  0  0
 17 12  1  0  0  0  0
 17 16  1  0  0  0  0
 18 16  2  0  0  0  0
 21 20  1  0  0  0  0
M  RAD  3   2   2   3   3   4   2
M  END
