Coordinates from ORCA-job 4-NO2PhN2+~HSO4-_B3LYPG-6-31G_dp-CH-Scan-d09-49-n800
 OpenBabel11261919243D

 21 20  0  0  0  0  0  0  0  0999 V2000
   -1.7638   -0.3675   -0.1225 C   0  0  0  0  0  0  0  0  0  0  0  0
   -3.0831   -0.8320   -0.1872 N   0  0  0  0  0  0  0  0  0  0  0  0
   -4.1447   -1.1641   -0.2591 N   0  0  0  0  0  0  0  0  0  0  0  0
   -1.5992    0.9518   -0.5613 C   0  0  0  0  0  0  0  0  0  0  0  0
   -0.2320    1.3356   -0.4710 C   0  0  0  0  0  0  0  0  0  0  0  0
    0.7462    0.4689   -0.0057 C   0  0  0  0  0  0  0  0  0  0  0  0
    2.1566    0.9357    0.0595 N   0  0  0  0  0  0  0  0  0  0  0  0
    2.3936    2.0816   -0.3089 O   0  0  0  0  0  0  0  0  0  0  0  0
    2.9956    0.1402    0.4797 O   0  0  0  0  0  0  0  0  0  0  0  0
    0.4898   -0.8506    0.4188 C   0  0  0  0  0  0  0  0  0  0  0  0
   -0.8097   -1.3001    0.3638 C   0  0  0  0  0  0  0  0  0  0  0  0
   -3.4166    2.4595   -1.2926 H   0  0  0  0  0  0  0  0  0  0  0  0
    0.0801    2.3312   -0.7698 H   0  0  0  0  0  0  0  0  0  0  0  0
    1.3027   -1.4707    0.7717 H   0  0  0  0  0  0  0  0  0  0  0  0
   -1.0824   -2.3038    0.6749 H   0  0  0  0  0  0  0  0  0  0  0  0
   -5.3851    2.7084   -0.4810 S   0  0  0  0  0  0  0  0  0  0  0  0
   -4.2041    3.0090   -1.5205 O   0  0  0  0  0  0  0  0  0  0  0  0
   -6.5831    3.2924   -1.0468 O   0  0  0  0  0  0  0  0  0  0  0  0
   -5.3113    1.3289   -0.0350 O   0  0  0  0  0  0  0  0  0  0  0  0
   -4.9458    3.5918    0.8158 O   0  0  0  0  0  0  0  0  0  0  0  0
   -5.2503    4.5030    0.6660 H   0  0  0  0  0  0  0  0  0  0  0  0
  1 11  2  0  0  0  0
  2  1  1  0  0  0  0
  3  2  1  0  0  0  0
  4  5  2  0  0  0  0
  4  1  1  0  0  0  0
  5  6  1  0  0  0  0
  6  7  1  0  0  0  0
  6 10  2  0  0  0  0
  7  9  2  0  0  0  0
  8  7  2  0  0  0  0
 10 14  1  0  0  0  0
 11 10  1  0  0  0  0
 11 15  1  0  0  0  0
 13  5  1  0  0  0  0
 16 19  2  0  0  0  0
 16 20  1  0  0  0  0
 17 12  1  0  0  0  0
 17 16  1  0  0  0  0
 18 16  2  0  0  0  0
 21 20  1  0  0  0  0
M  RAD  3   2   2   3   3   4   2
M  END
