Coordinates from ORCA-job 4-NO2PhN2+~HSO4-_B3LYPG-6-31G_dp-CH-Scan-d09-49-n800
 OpenBabel11261919243D

 21 20  0  0  0  0  0  0  0  0999 V2000
   -1.6852   -0.3738   -0.1049 C   0  0  0  0  0  0  0  0  0  0  0  0
   -3.0174   -0.8071   -0.1644 N   0  0  0  0  0  0  0  0  0  0  0  0
   -4.0878   -1.1118   -0.2345 N   0  0  0  0  0  0  0  0  0  0  0  0
   -1.4979    0.9319   -0.5710 C   0  0  0  0  0  0  0  0  0  0  0  0
   -0.1205    1.2863   -0.4858 C   0  0  0  0  0  0  0  0  0  0  0  0
    0.8384    0.4088   -0.0014 C   0  0  0  0  0  0  0  0  0  0  0  0
    2.2586    0.8457    0.0567 N   0  0  0  0  0  0  0  0  0  0  0  0
    2.5214    1.9799   -0.3309 O   0  0  0  0  0  0  0  0  0  0  0  0
    3.0802    0.0418    0.4957 O   0  0  0  0  0  0  0  0  0  0  0  0
    0.5538   -0.8970    0.4503 C   0  0  0  0  0  0  0  0  0  0  0  0
   -0.7547   -1.3195    0.4027 C   0  0  0  0  0  0  0  0  0  0  0  0
   -3.5907    2.7081   -1.4004 H   0  0  0  0  0  0  0  0  0  0  0  0
    0.2152    2.2683   -0.8044 H   0  0  0  0  0  0  0  0  0  0  0  0
    1.3533   -1.5264    0.8167 H   0  0  0  0  0  0  0  0  0  0  0  0
   -1.0497   -2.3108    0.7334 H   0  0  0  0  0  0  0  0  0  0  0  0
   -5.5344    2.7591   -0.5042 S   0  0  0  0  0  0  0  0  0  0  0  0
   -4.4142    3.2091   -1.5690 O   0  0  0  0  0  0  0  0  0  0  0  0
   -6.7885    3.2811   -1.0031 O   0  0  0  0  0  0  0  0  0  0  0  0
   -5.3354    1.3692   -0.1424 O   0  0  0  0  0  0  0  0  0  0  0  0
   -5.1106    3.6056    0.8197 O   0  0  0  0  0  0  0  0  0  0  0  0
   -5.4806    4.5005    0.7298 H   0  0  0  0  0  0  0  0  0  0  0  0
  1 11  2  0  0  0  0
  2  1  1  0  0  0  0
  3  2  1  0  0  0  0
  4  5  2  0  0  0  0
  4  1  1  0  0  0  0
  5  6  1  0  0  0  0
  6  7  1  0  0  0  0
  6 10  2  0  0  0  0
  7  9  2  0  0  0  0
  8  7  2  0  0  0  0
 10 14  1  0  0  0  0
 11 10  1  0  0  0  0
 11 15  1  0  0  0  0
 13  5  1  0  0  0  0
 16 19  2  0  0  0  0
 16 20  1  0  0  0  0
 17 12  1  0  0  0  0
 17 16  1  0  0  0  0
 18 16  2  0  0  0  0
 21 20  1  0  0  0  0
M  RAD  3   2   2   3   3   4   2
M  END
