Coordinates from ORCA-job 4-NO2PhN2+~HSO4-_B3LYPG-6-31G_dp-CH-Scan-d09-49-n800
 OpenBabel11261919243D

 21 20  0  0  0  0  0  0  0  0999 V2000
   -1.5936   -0.3858   -0.0980 C   0  0  0  0  0  0  0  0  0  0  0  0
   -2.9397   -0.7822   -0.1603 N   0  0  0  0  0  0  0  0  0  0  0  0
   -4.0206   -1.0482   -0.2370 N   0  0  0  0  0  0  0  0  0  0  0  0
   -1.3792    0.9033   -0.5939 C   0  0  0  0  0  0  0  0  0  0  0  0
    0.0073    1.2274   -0.5042 C   0  0  0  0  0  0  0  0  0  0  0  0
    0.9416    0.3408    0.0105 C   0  0  0  0  0  0  0  0  0  0  0  0
    2.3706    0.7472    0.0736 N   0  0  0  0  0  0  0  0  0  0  0  0
    2.6632    1.8671   -0.3343 O   0  0  0  0  0  0  0  0  0  0  0  0
    3.1720   -0.0679    0.5295 O   0  0  0  0  0  0  0  0  0  0  0  0
    0.6244   -0.9486    0.4896 C   0  0  0  0  0  0  0  0  0  0  0  0
   -0.6924   -1.3432    0.4400 C   0  0  0  0  0  0  0  0  0  0  0  0
   -3.8312    2.9889   -1.5500 H   0  0  0  0  0  0  0  0  0  0  0  0
    0.3692    2.1936   -0.8429 H   0  0  0  0  0  0  0  0  0  0  0  0
    1.4071   -1.5865    0.8771 H   0  0  0  0  0  0  0  0  0  0  0  0
   -1.0130   -2.3200    0.7899 H   0  0  0  0  0  0  0  0  0  0  0  0
   -5.6983    2.8151   -0.5150 S   0  0  0  0  0  0  0  0  0  0  0  0
   -4.7031    3.4157   -1.6378 O   0  0  0  0  0  0  0  0  0  0  0  0
   -7.0265    3.2335   -0.9057 O   0  0  0  0  0  0  0  0  0  0  0  0
   -5.3366    1.4404   -0.2367 O   0  0  0  0  0  0  0  0  0  0  0  0
   -5.2570    3.6493    0.8092 O   0  0  0  0  0  0  0  0  0  0  0  0
   -5.7107    4.5092    0.7851 H   0  0  0  0  0  0  0  0  0  0  0  0
  1 11  2  0  0  0  0
  2  1  1  0  0  0  0
  3  2  1  0  0  0  0
  4  5  2  0  0  0  0
  4  1  1  0  0  0  0
  5  6  1  0  0  0  0
  6  7  1  0  0  0  0
  6 10  2  0  0  0  0
  7  9  2  0  0  0  0
  8  7  2  0  0  0  0
 10 14  1  0  0  0  0
 11 10  1  0  0  0  0
 11 15  1  0  0  0  0
 13  5  1  0  0  0  0
 16 19  2  0  0  0  0
 16 20  1  0  0  0  0
 17 12  1  0  0  0  0
 17 16  1  0  0  0  0
 18 16  2  0  0  0  0
 21 20  1  0  0  0  0
M  RAD  3   2   2   3   3   4   2
M  END
