Coordinates from ORCA-job 4-NO2PhN2+~HSO4-_B3LYPG-6-31G_dp-CH-Scan-d09-49-n800
 OpenBabel11261919243D

 21 20  0  0  0  0  0  0  0  0999 V2000
   -1.5791   -0.4317   -0.2604 C   0  0  0  0  0  0  0  0  0  0  0  0
   -2.9112   -0.8513   -0.4290 N   0  0  0  0  0  0  0  0  0  0  0  0
   -3.9754   -1.1288   -0.6174 N   0  0  0  0  0  0  0  0  0  0  0  0
   -1.3212    0.7891   -0.8862 C   0  0  0  0  0  0  0  0  0  0  0  0
    0.0455    1.1488   -0.6839 C   0  0  0  0  0  0  0  0  0  0  0  0
    0.9193    0.3526    0.0414 C   0  0  0  0  0  0  0  0  0  0  0  0
    2.3285    0.7929    0.2165 N   0  0  0  0  0  0  0  0  0  0  0  0
    2.6600    1.8603   -0.2909 O   0  0  0  0  0  0  0  0  0  0  0  0
    3.0762    0.0597    0.8635 O   0  0  0  0  0  0  0  0  0  0  0  0
    0.5572   -0.8747    0.6391 C   0  0  0  0  0  0  0  0  0  0  0  0
   -0.7426   -1.2997    0.4904 C   0  0  0  0  0  0  0  0  0  0  0  0
   -4.1766    3.0953   -1.9031 H   0  0  0  0  0  0  0  0  0  0  0  0
    0.4386    2.0723   -1.0991 H   0  0  0  0  0  0  0  0  0  0  0  0
    1.2951   -1.4437    1.1883 H   0  0  0  0  0  0  0  0  0  0  0  0
   -1.0951   -2.2335    0.9184 H   0  0  0  0  0  0  0  0  0  0  0  0
   -5.6595    2.8022   -0.3829 S   0  0  0  0  0  0  0  0  0  0  0  0
   -5.0476    3.4870   -1.7164 O   0  0  0  0  0  0  0  0  0  0  0  0
   -7.0521    3.1911   -0.3531 O   0  0  0  0  0  0  0  0  0  0  0  0
   -5.2023    1.4309   -0.2952 O   0  0  0  0  0  0  0  0  0  0  0  0
   -4.8699    3.5953    0.7951 O   0  0  0  0  0  0  0  0  0  0  0  0
   -5.3346    4.4350    0.9537 H   0  0  0  0  0  0  0  0  0  0  0  0
  1 11  2  0  0  0  0
  2  1  1  0  0  0  0
  3  2  1  0  0  0  0
  4  5  2  0  0  0  0
  4  1  1  0  0  0  0
  5  6  1  0  0  0  0
  6  7  1  0  0  0  0
  6 10  2  0  0  0  0
  7  9  2  0  0  0  0
  8  7  2  0  0  0  0
 10 14  1  0  0  0  0
 11 10  1  0  0  0  0
 11 15  1  0  0  0  0
 12 17  1  0  0  0  0
 13  5  1  0  0  0  0
 16 18  2  0  0  0  0
 16 19  2  0  0  0  0
 16 20  1  0  0  0  0
 17 16  1  0  0  0  0
 20 21  1  0  0  0  0
M  RAD  3   2   2   3   3   4   2
M  END
