Coordinates from ORCA-job 4-NO2PhN2+~HSO4-_B3LYPG-6-31G_dp-CH-Scan-d09-49-n800
 OpenBabel11261919243D

 21 20  0  0  0  0  0  0  0  0999 V2000
   -1.5640   -0.3956   -0.1256 C   0  0  0  0  0  0  0  0  0  0  0  0
   -2.9128   -0.7834   -0.2078 N   0  0  0  0  0  0  0  0  0  0  0  0
   -3.9944   -1.0391   -0.3064 N   0  0  0  0  0  0  0  0  0  0  0  0
   -1.3341    0.8777   -0.6519 C   0  0  0  0  0  0  0  0  0  0  0  0
    0.0524    1.1974   -0.5400 C   0  0  0  0  0  0  0  0  0  0  0  0
    0.9701    0.3214    0.0206 C   0  0  0  0  0  0  0  0  0  0  0  0
    2.3993    0.7229    0.1060 N   0  0  0  0  0  0  0  0  0  0  0  0
    2.7064    1.8324   -0.3196 O   0  0  0  0  0  0  0  0  0  0  0  0
    3.1867   -0.0842    0.5994 O   0  0  0  0  0  0  0  0  0  0  0  0
    0.6357   -0.9534    0.5275 C   0  0  0  0  0  0  0  0  0  0  0  0
   -0.6817   -1.3433    0.4586 C   0  0  0  0  0  0  0  0  0  0  0  0
   -3.9693    3.1004   -1.6658 H   0  0  0  0  0  0  0  0  0  0  0  0
    0.4273    2.1520   -0.8973 H   0  0  0  0  0  0  0  0  0  0  0  0
    1.4064   -1.5838    0.9495 H   0  0  0  0  0  0  0  0  0  0  0  0
   -1.0154   -2.3088    0.8270 H   0  0  0  0  0  0  0  0  0  0  0  0
   -5.7414    2.8271   -0.4939 S   0  0  0  0  0  0  0  0  0  0  0  0
   -4.8641    3.4836   -1.6843 O   0  0  0  0  0  0  0  0  0  0  0  0
   -7.1111    3.1994   -0.7708 O   0  0  0  0  0  0  0  0  0  0  0  0
   -5.3053    1.4644   -0.2704 O   0  0  0  0  0  0  0  0  0  0  0  0
   -5.2252    3.6601    0.8032 O   0  0  0  0  0  0  0  0  0  0  0  0
   -5.7120    4.5017    0.8308 H   0  0  0  0  0  0  0  0  0  0  0  0
  1 11  2  0  0  0  0
  2  1  1  0  0  0  0
  3  2  1  0  0  0  0
  4  5  2  0  0  0  0
  4  1  1  0  0  0  0
  5  6  1  0  0  0  0
  6  7  1  0  0  0  0
  6 10  2  0  0  0  0
  7  9  2  0  0  0  0
  8  7  2  0  0  0  0
 10 14  1  0  0  0  0
 11 10  1  0  0  0  0
 11 15  1  0  0  0  0
 13  5  1  0  0  0  0
 16 19  2  0  0  0  0
 16 20  1  0  0  0  0
 17 12  1  0  0  0  0
 17 16  1  0  0  0  0
 18 16  2  0  0  0  0
 20 21  1  0  0  0  0
M  RAD  3   2   2   3   3   4   2
M  END
