Coordinates from ORCA-job 4-NO2PhN2+~HSO4-_B3LYPG-6-31G_dp-CH-Scan-d09-49-n800
 OpenBabel11261919243D

 21 20  0  0  0  0  0  0  0  0999 V2000
   -1.6635   -0.3763   -0.1019 C   0  0  0  0  0  0  0  0  0  0  0  0
   -2.9991   -0.8011   -0.1613 N   0  0  0  0  0  0  0  0  0  0  0  0
   -4.0718   -1.0976   -0.2335 N   0  0  0  0  0  0  0  0  0  0  0  0
   -1.4698    0.9252   -0.5758 C   0  0  0  0  0  0  0  0  0  0  0  0
   -0.0900    1.2722   -0.4904 C   0  0  0  0  0  0  0  0  0  0  0  0
    0.8632    0.3924    0.0011 C   0  0  0  0  0  0  0  0  0  0  0  0
    2.2857    0.8218    0.0593 N   0  0  0  0  0  0  0  0  0  0  0  0
    2.5559    1.9517   -0.3358 O   0  0  0  0  0  0  0  0  0  0  0  0
    3.1027    0.0150    0.5015 O   0  0  0  0  0  0  0  0  0  0  0  0
    0.5708   -0.9093    0.4603 C   0  0  0  0  0  0  0  0  0  0  0  0
   -0.7398   -1.3249    0.4132 C   0  0  0  0  0  0  0  0  0  0  0  0
   -3.6436    2.7783   -1.4340 H   0  0  0  0  0  0  0  0  0  0  0  0
    0.2520    2.2503   -0.8143 H   0  0  0  0  0  0  0  0  0  0  0  0
    1.3664   -1.5407    0.8317 H   0  0  0  0  0  0  0  0  0  0  0  0
   -1.0410   -2.3125    0.7492 H   0  0  0  0  0  0  0  0  0  0  0  0
   -5.5741    2.7726   -0.5084 S   0  0  0  0  0  0  0  0  0  0  0  0
   -4.4788    3.2629   -1.5841 O   0  0  0  0  0  0  0  0  0  0  0  0
   -6.8459    3.2723   -0.9842 O   0  0  0  0  0  0  0  0  0  0  0  0
   -5.3364    1.3836   -0.1686 O   0  0  0  0  0  0  0  0  0  0  0  0
   -5.1499    3.6125    0.8191 O   0  0  0  0  0  0  0  0  0  0  0  0
   -5.5398    4.5004    0.7456 H   0  0  0  0  0  0  0  0  0  0  0  0
  1 11  2  0  0  0  0
  2  1  1  0  0  0  0
  3  2  1  0  0  0  0
  4  5  2  0  0  0  0
  4  1  1  0  0  0  0
  5  6  1  0  0  0  0
  6  7  1  0  0  0  0
  6 10  2  0  0  0  0
  7  9  2  0  0  0  0
  8  7  2  0  0  0  0
 10 14  1  0  0  0  0
 11 10  1  0  0  0  0
 11 15  1  0  0  0  0
 13  5  1  0  0  0  0
 16 19  2  0  0  0  0
 16 20  1  0  0  0  0
 17 12  1  0  0  0  0
 17 16  1  0  0  0  0
 18 16  2  0  0  0  0
 21 20  1  0  0  0  0
M  RAD  3   2   2   3   3   4   2
M  END
