Coordinates from ORCA-job 4-NO2PhN2+~HSO4-_B3LYPG-6-31G_dp-CH-Scan-d09-49-n800
 OpenBabel11261919243D

 21 20  0  0  0  0  0  0  0  0999 V2000
   -1.6794   -0.3746   -0.1044 C   0  0  0  0  0  0  0  0  0  0  0  0
   -3.0123   -0.8061   -0.1645 N   0  0  0  0  0  0  0  0  0  0  0  0
   -4.0835   -1.1085   -0.2346 N   0  0  0  0  0  0  0  0  0  0  0  0
   -1.4906    0.9302   -0.5722 C   0  0  0  0  0  0  0  0  0  0  0  0
   -0.1126    1.2829   -0.4865 C   0  0  0  0  0  0  0  0  0  0  0  0
    0.8447    0.4048   -0.0000 C   0  0  0  0  0  0  0  0  0  0  0  0
    2.2655    0.8400    0.0587 N   0  0  0  0  0  0  0  0  0  0  0  0
    2.5306    1.9721   -0.3332 O   0  0  0  0  0  0  0  0  0  0  0  0
    3.0862    0.0344    0.4962 O   0  0  0  0  0  0  0  0  0  0  0  0
    0.5582   -0.9001    0.4533 C   0  0  0  0  0  0  0  0  0  0  0  0
   -0.7507   -1.3210    0.4054 C   0  0  0  0  0  0  0  0  0  0  0  0
   -3.6047    2.7261   -1.4096 H   0  0  0  0  0  0  0  0  0  0  0  0
    0.2247    2.2640   -0.8062 H   0  0  0  0  0  0  0  0  0  0  0  0
    1.3567   -1.5299    0.8212 H   0  0  0  0  0  0  0  0  0  0  0  0
   -1.0473   -2.3114    0.7372 H   0  0  0  0  0  0  0  0  0  0  0  0
   -5.5451    2.7627   -0.5051 S   0  0  0  0  0  0  0  0  0  0  0  0
   -4.4315    3.2227   -1.5734 O   0  0  0  0  0  0  0  0  0  0  0  0
   -6.8040    3.2791   -0.9975 O   0  0  0  0  0  0  0  0  0  0  0  0
   -5.3360    1.3730   -0.1490 O   0  0  0  0  0  0  0  0  0  0  0  0
   -5.1203    3.6077    0.8193 O   0  0  0  0  0  0  0  0  0  0  0  0
   -5.4952    4.5009    0.7336 H   0  0  0  0  0  0  0  0  0  0  0  0
  1 11  2  0  0  0  0
  2  1  1  0  0  0  0
  3  2  1  0  0  0  0
  4  5  2  0  0  0  0
  4  1  1  0  0  0  0
  5  6  1  0  0  0  0
  6  7  1  0  0  0  0
  6 10  2  0  0  0  0
  7  9  2  0  0  0  0
  8  7  2  0  0  0  0
 10 14  1  0  0  0  0
 11 10  1  0  0  0  0
 11 15  1  0  0  0  0
 13  5  1  0  0  0  0
 16 19  2  0  0  0  0
 16 20  1  0  0  0  0
 17 12  1  0  0  0  0
 17 16  1  0  0  0  0
 18 16  2  0  0  0  0
 21 20  1  0  0  0  0
M  RAD  3   2   2   3   3   4   2
M  END
