Coordinates from ORCA-job 4-NO2PhN2+~HSO4-_B3LYPG-6-31G_dp-CH-Scan-d09-49-n800
 OpenBabel11261919243D

 21 20  0  0  0  0  0  0  0  0999 V2000
   -1.8549   -0.3589   -0.1454 C   0  0  0  0  0  0  0  0  0  0  0  0
   -3.1594   -0.8569   -0.2152 N   0  0  0  0  0  0  0  0  0  0  0  0
   -4.2115   -1.2162   -0.2867 N   0  0  0  0  0  0  0  0  0  0  0  0
   -1.7125    0.9717   -0.5619 C   0  0  0  0  0  0  0  0  0  0  0  0
   -0.3576    1.3864   -0.4657 C   0  0  0  0  0  0  0  0  0  0  0  0
    0.6401    0.5347   -0.0135 C   0  0  0  0  0  0  0  0  0  0  0  0
    2.0391    1.0334    0.0597 N   0  0  0  0  0  0  0  0  0  0  0  0
    2.2482    2.1898   -0.2913 O   0  0  0  0  0  0  0  0  0  0  0  0
    2.8951    0.2507    0.4686 O   0  0  0  0  0  0  0  0  0  0  0  0
    0.4127   -0.7954    0.3889 C   0  0  0  0  0  0  0  0  0  0  0  0
   -0.8769   -1.2731    0.3253 C   0  0  0  0  0  0  0  0  0  0  0  0
   -3.2129    2.2006   -1.1663 H   0  0  0  0  0  0  0  0  0  0  0  0
   -0.0713    2.3937   -0.7492 H   0  0  0  0  0  0  0  0  0  0  0  0
    1.2385   -1.4035    0.7326 H   0  0  0  0  0  0  0  0  0  0  0  0
   -1.1266   -2.2874    0.6202 H   0  0  0  0  0  0  0  0  0  0  0  0
   -5.2011    2.6488   -0.4595 S   0  0  0  0  0  0  0  0  0  0  0  0
   -3.9714    2.8073   -1.4510 O   0  0  0  0  0  0  0  0  0  0  0  0
   -6.3459    3.2751   -1.0910 O   0  0  0  0  0  0  0  0  0  0  0  0
   -5.2453    1.2929    0.0662 O   0  0  0  0  0  0  0  0  0  0  0  0
   -4.7605    3.5698    0.8151 O   0  0  0  0  0  0  0  0  0  0  0  0
   -5.0127    4.4856    0.6088 H   0  0  0  0  0  0  0  0  0  0  0  0
  1 11  2  0  0  0  0
  2  1  1  0  0  0  0
  3  2  1  0  0  0  0
  4  5  2  0  0  0  0
  4  1  1  0  0  0  0
  5  6  1  0  0  0  0
  6  7  1  0  0  0  0
  6 10  2  0  0  0  0
  7  9  2  0  0  0  0
  8  7  2  0  0  0  0
 10 14  1  0  0  0  0
 11 10  1  0  0  0  0
 11 15  1  0  0  0  0
 13  5  1  0  0  0  0
 16 19  2  0  0  0  0
 16 20  1  0  0  0  0
 17 12  1  0  0  0  0
 17 16  1  0  0  0  0
 18 16  2  0  0  0  0
 21 20  1  0  0  0  0
M  RAD  3   2   2   3   3   4   2
M  END
