Coordinates from ORCA-job 4-NO2PhN2+~HSO4-_B3LYPG-6-31G_dp-CH-Scan-d09-49-n800
 OpenBabel11261919243D

 21 20  0  0  0  0  0  0  0  0999 V2000
   -1.5687   -0.3920   -0.1129 C   0  0  0  0  0  0  0  0  0  0  0  0
   -2.9176   -0.7797   -0.1859 N   0  0  0  0  0  0  0  0  0  0  0  0
   -3.9999   -1.0358   -0.2767 N   0  0  0  0  0  0  0  0  0  0  0  0
   -1.3431    0.8869   -0.6283 C   0  0  0  0  0  0  0  0  0  0  0  0
    0.0444    1.2053   -0.5261 C   0  0  0  0  0  0  0  0  0  0  0  0
    0.9672    0.3234    0.0165 C   0  0  0  0  0  0  0  0  0  0  0  0
    2.3973    0.7238    0.0921 N   0  0  0  0  0  0  0  0  0  0  0  0
    2.7002    1.8380   -0.3240 O   0  0  0  0  0  0  0  0  0  0  0  0
    3.1885   -0.0869    0.5733 O   0  0  0  0  0  0  0  0  0  0  0  0
    0.6374   -0.9564    0.5134 C   0  0  0  0  0  0  0  0  0  0  0  0
   -0.6807   -1.3454    0.4532 C   0  0  0  0  0  0  0  0  0  0  0  0
   -3.9310    3.0749   -1.6280 H   0  0  0  0  0  0  0  0  0  0  0  0
    0.4160    2.1636   -0.8768 H   0  0  0  0  0  0  0  0  0  0  0  0
    1.4118   -1.5912    0.9218 H   0  0  0  0  0  0  0  0  0  0  0  0
   -1.0111   -2.3146    0.8151 H   0  0  0  0  0  0  0  0  0  0  0  0
   -5.7372    2.8266   -0.5036 S   0  0  0  0  0  0  0  0  0  0  0  0
   -4.8201    3.4700   -1.6703 O   0  0  0  0  0  0  0  0  0  0  0  0
   -7.0955    3.2084   -0.8215 O   0  0  0  0  0  0  0  0  0  0  0  0
   -5.3190    1.4615   -0.2615 O   0  0  0  0  0  0  0  0  0  0  0  0
   -5.2527    3.6614    0.8047 O   0  0  0  0  0  0  0  0  0  0  0  0
   -5.7329    4.5071    0.8142 H   0  0  0  0  0  0  0  0  0  0  0  0
  1 11  2  0  0  0  0
  2  1  1  0  0  0  0
  3  2  1  0  0  0  0
  4  5  2  0  0  0  0
  4  1  1  0  0  0  0
  5  6  1  0  0  0  0
  6  7  1  0  0  0  0
  6 10  2  0  0  0  0
  7  9  2  0  0  0  0
  8  7  2  0  0  0  0
 10 14  1  0  0  0  0
 11 10  1  0  0  0  0
 11 15  1  0  0  0  0
 13  5  1  0  0  0  0
 16 19  2  0  0  0  0
 16 20  1  0  0  0  0
 17 12  1  0  0  0  0
 17 16  1  0  0  0  0
 18 16  2  0  0  0  0
 20 21  1  0  0  0  0
M  RAD  3   2   2   3   3   4   2
M  END
