Coordinates from ORCA-job 4-NO2PhN2+~HSO4-_B3LYPG-6-31G_dp-CH-Scan-d09-49-n800
 OpenBabel11261919243D

 21 20  0  0  0  0  0  0  0  0999 V2000
   -1.9471   -0.3017   -0.1884 C   0  0  0  0  0  0  0  0  0  0  0  0
   -3.2532   -0.7796   -0.2752 N   0  0  0  0  0  0  0  0  0  0  0  0
   -4.3118   -1.1132   -0.3471 N   0  0  0  0  0  0  0  0  0  0  0  0
   -1.7510    1.0383   -0.5483 C   0  0  0  0  0  0  0  0  0  0  0  0
   -0.4097    1.4512   -0.4485 C   0  0  0  0  0  0  0  0  0  0  0  0
    0.5773    0.5671   -0.0315 C   0  0  0  0  0  0  0  0  0  0  0  0
    1.9819    1.0468    0.0553 N   0  0  0  0  0  0  0  0  0  0  0  0
    2.1988    2.2115   -0.2582 O   0  0  0  0  0  0  0  0  0  0  0  0
    2.8261    0.2392    0.4359 O   0  0  0  0  0  0  0  0  0  0  0  0
    0.3281   -0.7691    0.3180 C   0  0  0  0  0  0  0  0  0  0  0  0
   -0.9704   -1.2303    0.2394 C   0  0  0  0  0  0  0  0  0  0  0  0
   -2.8069    1.9095   -0.9281 H   0  0  0  0  0  0  0  0  0  0  0  0
   -0.1298    2.4690   -0.6955 H   0  0  0  0  0  0  0  0  0  0  0  0
    1.1446   -1.4030    0.6374 H   0  0  0  0  0  0  0  0  0  0  0  0
   -1.2292   -2.2514    0.4981 H   0  0  0  0  0  0  0  0  0  0  0  0
   -4.9768    2.5673   -0.3856 S   0  0  0  0  0  0  0  0  0  0  0  0
   -3.7245    2.6933   -1.2652 O   0  0  0  0  0  0  0  0  0  0  0  0
   -6.1930    2.8652   -1.1348 O   0  0  0  0  0  0  0  0  0  0  0  0
   -4.9067    1.3355    0.4166 O   0  0  0  0  0  0  0  0  0  0  0  0
   -4.8077    3.7693    0.7266 O   0  0  0  0  0  0  0  0  0  0  0  0
   -5.2856    4.5342    0.3680 H   0  0  0  0  0  0  0  0  0  0  0  0
  1 11  2  0  0  0  0
  2  1  1  0  0  0  0
  3  2  1  0  0  0  0
  4  5  2  0  0  0  0
  4  1  1  0  0  0  0
  5  6  1  0  0  0  0
  6  7  1  0  0  0  0
  6 10  2  0  0  0  0
  7  9  2  0  0  0  0
  8  7  2  0  0  0  0
 10 14  1  0  0  0  0
 11 10  1  0  0  0  0
 11 15  1  0  0  0  0
 13  5  1  0  0  0  0
 16 19  2  0  0  0  0
 16 20  1  0  0  0  0
 17 12  1  0  0  0  0
 17 16  1  0  0  0  0
 18 16  2  0  0  0  0
 21 20  1  0  0  0  0
M  RAD  3   2   2   3   3   4   2
M  END
