Coordinates from ORCA-job 4-NO2PhN2+~HSO4-_B3LYPG-6-31G_dp-CH-Scan-d09-49-n800
 OpenBabel11261919243D

 21 20  0  0  0  0  0  0  0  0999 V2000
   -1.6506   -0.5147   -1.0438 C   0  0  0  0  0  0  0  0  0  0  0  0
   -2.8490   -1.1284   -1.4627 N   0  0  0  0  0  0  0  0  0  0  0  0
   -3.7493   -1.6414   -1.8752 N   0  0  0  0  0  0  0  0  0  0  0  0
   -0.6433   -0.6495   -1.9961 C   0  0  0  0  0  0  0  0  0  0  0  0
    0.5363    0.0212   -1.5421 C   0  0  0  0  0  0  0  0  0  0  0  0
    0.5740    0.7126   -0.3417 C   0  0  0  0  0  0  0  0  0  0  0  0
    1.8168    1.4275    0.0509 N   0  0  0  0  0  0  0  0  0  0  0  0
    2.7713    1.3780   -0.7179 O   0  0  0  0  0  0  0  0  0  0  0  0
    1.8095    2.0261    1.1274 O   0  0  0  0  0  0  0  0  0  0  0  0
   -0.5076    0.7719    0.5690 C   0  0  0  0  0  0  0  0  0  0  0  0
   -1.6746    0.1261    0.2247 C   0  0  0  0  0  0  0  0  0  0  0  0
   -2.8698    2.7327    0.0448 H   0  0  0  0  0  0  0  0  0  0  0  0
    1.4406    0.0097   -2.1443 H   0  0  0  0  0  0  0  0  0  0  0  0
   -0.3846    1.2904    1.5107 H   0  0  0  0  0  0  0  0  0  0  0  0
   -2.5375    0.0921    0.8825 H   0  0  0  0  0  0  0  0  0  0  0  0
   -4.9607    2.2834    0.2203 S   0  0  0  0  0  0  0  0  0  0  0  0
   -3.6827    3.2681    0.0977 O   0  0  0  0  0  0  0  0  0  0  0  0
   -6.1201    3.1034   -0.0405 O   0  0  0  0  0  0  0  0  0  0  0  0
   -4.6719    1.0420   -0.4724 O   0  0  0  0  0  0  0  0  0  0  0  0
   -4.9266    1.8941    1.7990 O   0  0  0  0  0  0  0  0  0  0  0  0
   -5.3670    2.6036    2.2986 H   0  0  0  0  0  0  0  0  0  0  0  0
  1 11  2  0  0  0  0
  2  1  1  0  0  0  0
  3  2  1  0  0  0  0
  4  5  2  0  0  0  0
  4  1  1  0  0  0  0
  5  6  1  0  0  0  0
  6  7  1  0  0  0  0
  6 10  2  0  0  0  0
  7  9  2  0  0  0  0
  8  7  2  0  0  0  0
 10 14  1  0  0  0  0
 11 10  1  0  0  0  0
 11 15  1  0  0  0  0
 12 17  1  0  0  0  0
 13  5  1  0  0  0  0
 16 20  1  0  0  0  0
 17 16  1  0  0  0  0
 18 16  2  0  0  0  0
 19 16  2  0  0  0  0
 20 21  1  0  0  0  0
M  RAD  3   2   2   3   3   4   2
M  END
