Coordinates from ORCA-job 4-NO2PhN2+~HSO4-_B3LYPG-6-31G_dp-CH-Scan-d09-49-n800
 OpenBabel11261919243D

 21 20  0  0  0  0  0  0  0  0999 V2000
   -1.5691   -0.3910   -0.1115 C   0  0  0  0  0  0  0  0  0  0  0  0
   -2.9182   -0.7785   -0.1841 N   0  0  0  0  0  0  0  0  0  0  0  0
   -4.0004   -1.0352   -0.2735 N   0  0  0  0  0  0  0  0  0  0  0  0
   -1.3435    0.8882   -0.6255 C   0  0  0  0  0  0  0  0  0  0  0  0
    0.0440    1.2064   -0.5241 C   0  0  0  0  0  0  0  0  0  0  0  0
    0.9672    0.3237    0.0167 C   0  0  0  0  0  0  0  0  0  0  0  0
    2.3974    0.7238    0.0916 N   0  0  0  0  0  0  0  0  0  0  0  0
    2.7006    1.8373   -0.3261 O   0  0  0  0  0  0  0  0  0  0  0  0
    3.1892   -0.0885    0.5690 O   0  0  0  0  0  0  0  0  0  0  0  0
    0.6375   -0.9565    0.5124 C   0  0  0  0  0  0  0  0  0  0  0  0
   -0.6807   -1.3452    0.4529 C   0  0  0  0  0  0  0  0  0  0  0  0
   -3.9276    3.0731   -1.6242 H   0  0  0  0  0  0  0  0  0  0  0  0
    0.4155    2.1651   -0.8741 H   0  0  0  0  0  0  0  0  0  0  0  0
    1.4121   -1.5920    0.9194 H   0  0  0  0  0  0  0  0  0  0  0  0
   -1.0110   -2.3147    0.8139 H   0  0  0  0  0  0  0  0  0  0  0  0
   -5.7370    2.8263   -0.5048 S   0  0  0  0  0  0  0  0  0  0  0  0
   -4.8161    3.4691   -1.6688 O   0  0  0  0  0  0  0  0  0  0  0  0
   -7.0940    3.2088   -0.8272 O   0  0  0  0  0  0  0  0  0  0  0  0
   -5.3205    1.4608   -0.2607 O   0  0  0  0  0  0  0  0  0  0  0  0
   -5.2561    3.6610    0.8048 O   0  0  0  0  0  0  0  0  0  0  0  0
   -5.7360    4.5069    0.8127 H   0  0  0  0  0  0  0  0  0  0  0  0
  1 11  2  0  0  0  0
  2  1  1  0  0  0  0
  3  2  1  0  0  0  0
  4  5  2  0  0  0  0
  4  1  1  0  0  0  0
  5  6  1  0  0  0  0
  6  7  1  0  0  0  0
  6 10  2  0  0  0  0
  7  9  2  0  0  0  0
  8  7  2  0  0  0  0
 10 14  1  0  0  0  0
 11 10  1  0  0  0  0
 11 15  1  0  0  0  0
 13  5  1  0  0  0  0
 16 19  2  0  0  0  0
 16 20  1  0  0  0  0
 17 12  1  0  0  0  0
 17 16  1  0  0  0  0
 18 16  2  0  0  0  0
 20 21  1  0  0  0  0
M  RAD  3   2   2   3   3   4   2
M  END
