Coordinates from ORCA-job 4-NO2PhN2+~HSO4-_B3LYPG-6-31G_dp-CH-Scan-d09-49-n800
 OpenBabel11261919243D

 21 20  0  0  0  0  0  0  0  0999 V2000
   -1.7039   -0.3722   -0.1074 C   0  0  0  0  0  0  0  0  0  0  0  0
   -3.0329   -0.8133   -0.1674 N   0  0  0  0  0  0  0  0  0  0  0  0
   -4.1014   -1.1246   -0.2368 N   0  0  0  0  0  0  0  0  0  0  0  0
   -1.5225    0.9374   -0.5659 C   0  0  0  0  0  0  0  0  0  0  0  0
   -0.1473    1.2988   -0.4805 C   0  0  0  0  0  0  0  0  0  0  0  0
    0.8166    0.4232   -0.0026 C   0  0  0  0  0  0  0  0  0  0  0  0
    2.2347    0.8672    0.0561 N   0  0  0  0  0  0  0  0  0  0  0  0
    2.4912    2.0041   -0.3274 O   0  0  0  0  0  0  0  0  0  0  0  0
    3.0610    0.0644    0.4880 O   0  0  0  0  0  0  0  0  0  0  0  0
    0.5393   -0.8864    0.4416 C   0  0  0  0  0  0  0  0  0  0  0  0
   -0.7671   -1.3154    0.3933 C   0  0  0  0  0  0  0  0  0  0  0  0
   -3.5455    2.6458   -1.3703 H   0  0  0  0  0  0  0  0  0  0  0  0
    0.1825    2.2844   -0.7937 H   0  0  0  0  0  0  0  0  0  0  0  0
    1.3423   -1.5140    0.8034 H   0  0  0  0  0  0  0  0  0  0  0  0
   -1.0565   -2.3100    0.7187 H   0  0  0  0  0  0  0  0  0  0  0  0
   -5.5000    2.7478   -0.5003 S   0  0  0  0  0  0  0  0  0  0  0  0
   -4.3588    3.1608   -1.5552 O   0  0  0  0  0  0  0  0  0  0  0  0
   -6.7380    3.2880   -1.0200 O   0  0  0  0  0  0  0  0  0  0  0  0
   -5.3348    1.3587   -0.1182 O   0  0  0  0  0  0  0  0  0  0  0  0
   -5.0765    3.6019    0.8193 O   0  0  0  0  0  0  0  0  0  0  0  0
   -5.4292    4.5020    0.7142 H   0  0  0  0  0  0  0  0  0  0  0  0
  1 11  2  0  0  0  0
  2  1  1  0  0  0  0
  3  2  1  0  0  0  0
  4  5  2  0  0  0  0
  4  1  1  0  0  0  0
  5  6  1  0  0  0  0
  6  7  1  0  0  0  0
  6 10  2  0  0  0  0
  7  9  2  0  0  0  0
  8  7  2  0  0  0  0
 10 14  1  0  0  0  0
 11 10  1  0  0  0  0
 11 15  1  0  0  0  0
 13  5  1  0  0  0  0
 16 19  2  0  0  0  0
 16 20  1  0  0  0  0
 17 12  1  0  0  0  0
 17 16  1  0  0  0  0
 18 16  2  0  0  0  0
 21 20  1  0  0  0  0
M  RAD  3   2   2   3   3   4   2
M  END
