Coordinates from ORCA-job 4-NO2PhN2+~HSO4-_B3LYPG-6-31G_dp-CH-Scan-d09-49-n800
 OpenBabel11261919243D

 21 20  0  0  0  0  0  0  0  0999 V2000
   -1.8915   -0.3534   -0.1612 C   0  0  0  0  0  0  0  0  0  0  0  0
   -3.1904   -0.8627   -0.2375 N   0  0  0  0  0  0  0  0  0  0  0  0
   -4.2382   -1.2320   -0.3133 N   0  0  0  0  0  0  0  0  0  0  0  0
   -1.7522    0.9806   -0.5693 C   0  0  0  0  0  0  0  0  0  0  0  0
   -0.4028    1.4056   -0.4684 C   0  0  0  0  0  0  0  0  0  0  0  0
    0.5996    0.5585   -0.0175 C   0  0  0  0  0  0  0  0  0  0  0  0
    1.9947    1.0669    0.0620 N   0  0  0  0  0  0  0  0  0  0  0  0
    2.1960    2.2256   -0.2855 O   0  0  0  0  0  0  0  0  0  0  0  0
    2.8543    0.2888    0.4714 O   0  0  0  0  0  0  0  0  0  0  0  0
    0.3795   -0.7742    0.3774 C   0  0  0  0  0  0  0  0  0  0  0  0
   -0.9070   -1.2607    0.3072 C   0  0  0  0  0  0  0  0  0  0  0  0
   -3.1199    2.0967   -1.1099 H   0  0  0  0  0  0  0  0  0  0  0  0
   -0.1252    2.4169   -0.7462 H   0  0  0  0  0  0  0  0  0  0  0  0
    1.2080   -1.3787    0.7211 H   0  0  0  0  0  0  0  0  0  0  0  0
   -1.1502   -2.2780    0.5965 H   0  0  0  0  0  0  0  0  0  0  0  0
   -5.1208    2.6226   -0.4419 S   0  0  0  0  0  0  0  0  0  0  0  0
   -3.8809    2.7324   -1.4124 O   0  0  0  0  0  0  0  0  0  0  0  0
   -6.2611    3.2311   -1.1013 O   0  0  0  0  0  0  0  0  0  0  0  0
   -5.1851    1.2859    0.1351 O   0  0  0  0  0  0  0  0  0  0  0  0
   -4.6962    3.5858    0.8098 O   0  0  0  0  0  0  0  0  0  0  0  0
   -4.9574    4.4913    0.5726 H   0  0  0  0  0  0  0  0  0  0  0  0
  1 11  2  0  0  0  0
  2  1  1  0  0  0  0
  3  2  1  0  0  0  0
  4  5  2  0  0  0  0
  4  1  1  0  0  0  0
  5  6  1  0  0  0  0
  6  7  1  0  0  0  0
  6 10  2  0  0  0  0
  7  9  2  0  0  0  0
  8  7  2  0  0  0  0
 10 14  1  0  0  0  0
 11 10  1  0  0  0  0
 11 15  1  0  0  0  0
 13  5  1  0  0  0  0
 16 19  2  0  0  0  0
 16 20  1  0  0  0  0
 17 12  1  0  0  0  0
 17 16  1  0  0  0  0
 18 16  2  0  0  0  0
 21 20  1  0  0  0  0
M  RAD  3   2   2   3   3   4   2
M  END
