Coordinates from ORCA-job 4-NO2PhN2+~HSO4-_B3LYPG-6-31G_dp-CH-Scan-d09-49-n800
 OpenBabel11261919243D

 21 20  0  0  0  0  0  0  0  0999 V2000
   -1.8509   -0.3594   -0.1437 C   0  0  0  0  0  0  0  0  0  0  0  0
   -3.1561   -0.8560   -0.2127 N   0  0  0  0  0  0  0  0  0  0  0  0
   -4.2086   -1.2142   -0.2836 N   0  0  0  0  0  0  0  0  0  0  0  0
   -1.7078    0.9708   -0.5611 C   0  0  0  0  0  0  0  0  0  0  0  0
   -0.3523    1.3842   -0.4656 C   0  0  0  0  0  0  0  0  0  0  0  0
    0.6448    0.5319   -0.0132 C   0  0  0  0  0  0  0  0  0  0  0  0
    2.0443    1.0293    0.0593 N   0  0  0  0  0  0  0  0  0  0  0  0
    2.2544    2.1853   -0.2924 O   0  0  0  0  0  0  0  0  0  0  0  0
    2.8997    0.2461    0.4683 O   0  0  0  0  0  0  0  0  0  0  0  0
    0.4164   -0.7978    0.3902 C   0  0  0  0  0  0  0  0  0  0  0  0
   -0.8737   -1.2744    0.3273 C   0  0  0  0  0  0  0  0  0  0  0  0
   -3.2223    2.2123   -1.1721 H   0  0  0  0  0  0  0  0  0  0  0  0
   -0.0650    2.3911   -0.7497 H   0  0  0  0  0  0  0  0  0  0  0  0
    1.2418   -1.4064    0.7340 H   0  0  0  0  0  0  0  0  0  0  0  0
   -1.1242   -2.2883    0.6230 H   0  0  0  0  0  0  0  0  0  0  0  0
   -5.2098    2.6517   -0.4615 S   0  0  0  0  0  0  0  0  0  0  0  0
   -3.9811    2.8166   -1.4546 O   0  0  0  0  0  0  0  0  0  0  0  0
   -6.3556    3.2790   -1.0900 O   0  0  0  0  0  0  0  0  0  0  0  0
   -5.2509    1.2938    0.0584 O   0  0  0  0  0  0  0  0  0  0  0  0
   -4.7687    3.5684    0.8157 O   0  0  0  0  0  0  0  0  0  0  0  0
   -5.0212    4.4850    0.6130 H   0  0  0  0  0  0  0  0  0  0  0  0
  1 11  2  0  0  0  0
  2  1  1  0  0  0  0
  3  2  1  0  0  0  0
  4  5  2  0  0  0  0
  4  1  1  0  0  0  0
  5  6  1  0  0  0  0
  6  7  1  0  0  0  0
  6 10  2  0  0  0  0
  7  9  2  0  0  0  0
  8  7  2  0  0  0  0
 10 14  1  0  0  0  0
 11 10  1  0  0  0  0
 11 15  1  0  0  0  0
 13  5  1  0  0  0  0
 16 19  2  0  0  0  0
 16 20  1  0  0  0  0
 17 12  1  0  0  0  0
 17 16  1  0  0  0  0
 18 16  2  0  0  0  0
 21 20  1  0  0  0  0
M  RAD  3   2   2   3   3   4   2
M  END
