Coordinates from ORCA-job 4-NO2PhN2+~HSO4-_B3LYPG-6-31G_dp-CH-Scan-d09-49-n800
 OpenBabel11261919243D

 21 20  0  0  0  0  0  0  0  0999 V2000
   -1.6093   -0.4267   -0.2441 C   0  0  0  0  0  0  0  0  0  0  0  0
   -2.9384   -0.8572   -0.4009 N   0  0  0  0  0  0  0  0  0  0  0  0
   -4.0027   -1.1479   -0.5670 N   0  0  0  0  0  0  0  0  0  0  0  0
   -1.3701    0.8109   -0.8453 C   0  0  0  0  0  0  0  0  0  0  0  0
   -0.0036    1.1774   -0.6562 C   0  0  0  0  0  0  0  0  0  0  0  0
    0.8882    0.3722    0.0365 C   0  0  0  0  0  0  0  0  0  0  0  0
    2.2965    0.8204    0.1991 N   0  0  0  0  0  0  0  0  0  0  0  0
    2.6116    1.9003   -0.2919 O   0  0  0  0  0  0  0  0  0  0  0  0
    3.0601    0.0793    0.8176 O   0  0  0  0  0  0  0  0  0  0  0  0
    0.5457   -0.8711    0.6116 C   0  0  0  0  0  0  0  0  0  0  0  0
   -0.7529   -1.3035    0.4735 C   0  0  0  0  0  0  0  0  0  0  0  0
   -4.0495    3.0219   -1.8397 H   0  0  0  0  0  0  0  0  0  0  0  0
    0.3753    2.1135   -1.0559 H   0  0  0  0  0  0  0  0  0  0  0  0
    1.2965   -1.4462    1.1363 H   0  0  0  0  0  0  0  0  0  0  0  0
   -1.0909   -2.2496    0.8857 H   0  0  0  0  0  0  0  0  0  0  0  0
   -5.6166    2.7890   -0.3963 S   0  0  0  0  0  0  0  0  0  0  0  0
   -4.9225    3.4323   -1.7087 O   0  0  0  0  0  0  0  0  0  0  0  0
   -6.9958    3.2220   -0.4369 O   0  0  0  0  0  0  0  0  0  0  0  0
   -5.2099    1.4052   -0.2657 O   0  0  0  0  0  0  0  0  0  0  0  0
   -4.8569    3.5753    0.8065 O   0  0  0  0  0  0  0  0  0  0  0  0
   -5.3016    4.4314    0.9306 H   0  0  0  0  0  0  0  0  0  0  0  0
  1 11  2  0  0  0  0
  2  1  1  0  0  0  0
  3  2  1  0  0  0  0
  4  5  2  0  0  0  0
  4  1  1  0  0  0  0
  5  6  1  0  0  0  0
  6  7  1  0  0  0  0
  6 10  2  0  0  0  0
  7  9  2  0  0  0  0
  8  7  2  0  0  0  0
 10 14  1  0  0  0  0
 11 10  1  0  0  0  0
 11 15  1  0  0  0  0
 12 17  1  0  0  0  0
 13  5  1  0  0  0  0
 16 19  2  0  0  0  0
 16 20  1  0  0  0  0
 17 16  1  0  0  0  0
 18 16  2  0  0  0  0
 20 21  1  0  0  0  0
M  RAD  3   2   2   3   3   4   2
M  END
