Coordinates from ORCA-job 4-NO2PhN2+~HSO4-_B3LYPG-6-31G_dp-CH-Scan-d09-49-n800
 OpenBabel11261919243D

 21 20  0  0  0  0  0  0  0  0999 V2000
   -1.6522   -0.4813   -0.5793 C   0  0  0  0  0  0  0  0  0  0  0  0
   -2.9158   -0.9839   -0.9395 N   0  0  0  0  0  0  0  0  0  0  0  0
   -3.9152   -1.3307   -1.2948 N   0  0  0  0  0  0  0  0  0  0  0  0
   -1.2597    0.5746   -1.4017 C   0  0  0  0  0  0  0  0  0  0  0  0
    0.0284    1.0395   -0.9980 C   0  0  0  0  0  0  0  0  0  0  0  0
    0.7142    0.4763    0.0680 C   0  0  0  0  0  0  0  0  0  0  0  0
    2.0479    1.0166    0.4408 N   0  0  0  0  0  0  0  0  0  0  0  0
    2.4754    1.9732   -0.1992 O   0  0  0  0  0  0  0  0  0  0  0  0
    2.6429    0.4716    1.3704 O   0  0  0  0  0  0  0  0  0  0  0  0
    0.2249   -0.5996    0.8418 C   0  0  0  0  0  0  0  0  0  0  0  0
   -1.0091   -1.1132    0.5166 C   0  0  0  0  0  0  0  0  0  0  0  0
   -4.5662    2.9994   -2.0985 H   0  0  0  0  0  0  0  0  0  0  0  0
    0.5074    1.8606   -1.5236 H   0  0  0  0  0  0  0  0  0  0  0  0
    0.8192   -0.9888    1.6576 H   0  0  0  0  0  0  0  0  0  0  0  0
   -1.4515   -1.9404    1.0640 H   0  0  0  0  0  0  0  0  0  0  0  0
   -5.2806    2.6376   -0.1078 S   0  0  0  0  0  0  0  0  0  0  0  0
   -5.2651    3.3880   -1.5442 O   0  0  0  0  0  0  0  0  0  0  0  0
   -6.5176    3.0395    0.5231 O   0  0  0  0  0  0  0  0  0  0  0  0
   -4.8762    1.2581   -0.2855 O   0  0  0  0  0  0  0  0  0  0  0  0
   -4.0406    3.3531    0.6580 O   0  0  0  0  0  0  0  0  0  0  0  0
   -4.3571    4.1986    1.0206 H   0  0  0  0  0  0  0  0  0  0  0  0
  1 11  2  0  0  0  0
  2  1  1  0  0  0  0
  3  2  1  0  0  0  0
  4  5  2  0  0  0  0
  4  1  1  0  0  0  0
  5  6  1  0  0  0  0
  6  7  1  0  0  0  0
  6 10  2  0  0  0  0
  7  9  2  0  0  0  0
  8  7  2  0  0  0  0
 10 14  1  0  0  0  0
 11 10  1  0  0  0  0
 11 15  1  0  0  0  0
 12 17  1  0  0  0  0
 13  5  1  0  0  0  0
 16 18  2  0  0  0  0
 16 20  1  0  0  0  0
 17 16  1  0  0  0  0
 19 16  2  0  0  0  0
 20 21  1  0  0  0  0
M  RAD  3   2   2   3   3   4   2
M  END
