Coordinates from ORCA-job 4-NO2PhN2+~HSO4-_B3LYPG-6-31G_dp-CH-Scan-d09-49-n800
 OpenBabel11261919243D

 21 20  0  0  0  0  0  0  0  0999 V2000
   -1.7917   -0.3651   -0.1299 C   0  0  0  0  0  0  0  0  0  0  0  0
   -3.1065   -0.8399   -0.1965 N   0  0  0  0  0  0  0  0  0  0  0  0
   -4.1652   -1.1809   -0.2671 N   0  0  0  0  0  0  0  0  0  0  0  0
   -1.6345    0.9582   -0.5608 C   0  0  0  0  0  0  0  0  0  0  0  0
   -0.2711    1.3520   -0.4682 C   0  0  0  0  0  0  0  0  0  0  0  0
    0.7133    0.4898   -0.0076 C   0  0  0  0  0  0  0  0  0  0  0  0
    2.1202    0.9668    0.0607 N   0  0  0  0  0  0  0  0  0  0  0  0
    2.3483    2.1164   -0.3013 O   0  0  0  0  0  0  0  0  0  0  0  0
    2.9647    0.1750    0.4766 O   0  0  0  0  0  0  0  0  0  0  0  0
    0.4663   -0.8336    0.4090 C   0  0  0  0  0  0  0  0  0  0  0  0
   -0.8300   -1.2923    0.3509 C   0  0  0  0  0  0  0  0  0  0  0  0
   -3.3569    2.3764   -1.2556 H   0  0  0  0  0  0  0  0  0  0  0  0
    0.0329    2.3516   -0.7613 H   0  0  0  0  0  0  0  0  0  0  0  0
    1.2834   -1.4500    0.7585 H   0  0  0  0  0  0  0  0  0  0  0  0
   -1.0952   -2.2997    0.6562 H   0  0  0  0  0  0  0  0  0  0  0  0
   -5.3300    2.6900   -0.4734 S   0  0  0  0  0  0  0  0  0  0  0  0
   -4.1333    2.9426   -1.5022 O   0  0  0  0  0  0  0  0  0  0  0  0
   -6.5105    3.2910   -1.0591 O   0  0  0  0  0  0  0  0  0  0  0  0
   -5.2956    1.3167   -0.0014 O   0  0  0  0  0  0  0  0  0  0  0  0
   -4.8854    3.5848    0.8148 O   0  0  0  0  0  0  0  0  0  0  0  0
   -5.1698    4.4993    0.6464 H   0  0  0  0  0  0  0  0  0  0  0  0
  1 11  2  0  0  0  0
  2  1  1  0  0  0  0
  3  2  1  0  0  0  0
  4  5  2  0  0  0  0
  4  1  1  0  0  0  0
  5  6  1  0  0  0  0
  6  7  1  0  0  0  0
  6 10  2  0  0  0  0
  7  9  2  0  0  0  0
  8  7  2  0  0  0  0
 10 14  1  0  0  0  0
 11 10  1  0  0  0  0
 11 15  1  0  0  0  0
 13  5  1  0  0  0  0
 16 19  2  0  0  0  0
 16 20  1  0  0  0  0
 17 12  1  0  0  0  0
 17 16  1  0  0  0  0
 18 16  2  0  0  0  0
 21 20  1  0  0  0  0
M  RAD  3   2   2   3   3   4   2
M  END
