Coordinates from ORCA-job 4-NO2PhN2+~HSO4-_B3LYPG-6-31G_dp-CH-Scan-d09-49-n800
 OpenBabel11261919243D

 21 20  0  0  0  0  0  0  0  0999 V2000
   -1.6728   -0.4798   -0.5333 C   0  0  0  0  0  0  0  0  0  0  0  0
   -2.9412   -0.9872   -0.8678 N   0  0  0  0  0  0  0  0  0  0  0  0
   -3.9488   -1.3407   -1.1913 N   0  0  0  0  0  0  0  0  0  0  0  0
   -1.3301    0.6267   -1.3110 C   0  0  0  0  0  0  0  0  0  0  0  0
   -0.0328    1.0894   -0.9357 C   0  0  0  0  0  0  0  0  0  0  0  0
    0.7058    0.4796    0.0674 C   0  0  0  0  0  0  0  0  0  0  0  0
    2.0467    1.0204    0.4132 N   0  0  0  0  0  0  0  0  0  0  0  0
    2.4367    2.0119   -0.1969 O   0  0  0  0  0  0  0  0  0  0  0  0
    2.6769    0.4511    1.3041 O   0  0  0  0  0  0  0  0  0  0  0  0
    0.2648   -0.6443    0.8006 C   0  0  0  0  0  0  0  0  0  0  0  0
   -0.9744   -1.1595    0.4985 C   0  0  0  0  0  0  0  0  0  0  0  0
   -4.4255    2.9516   -2.0897 H   0  0  0  0  0  0  0  0  0  0  0  0
    0.4118    1.9463   -1.4335 H   0  0  0  0  0  0  0  0  0  0  0  0
    0.8985   -1.0678    1.5683 H   0  0  0  0  0  0  0  0  0  0  0  0
   -1.3811   -2.0231    1.0166 H   0  0  0  0  0  0  0  0  0  0  0  0
   -5.2870    2.6570   -0.1458 S   0  0  0  0  0  0  0  0  0  0  0  0
   -5.1535    3.3677   -1.5958 O   0  0  0  0  0  0  0  0  0  0  0  0
   -6.5503    3.1118    0.3905 O   0  0  0  0  0  0  0  0  0  0  0  0
   -4.9152    1.2618   -0.2598 O   0  0  0  0  0  0  0  0  0  0  0  0
   -4.0795    3.3570    0.6842 O   0  0  0  0  0  0  0  0  0  0  0  0
   -4.3955    4.2190    1.0061 H   0  0  0  0  0  0  0  0  0  0  0  0
  1 11  2  0  0  0  0
  2  1  1  0  0  0  0
  3  2  1  0  0  0  0
  4  5  2  0  0  0  0
  4  1  1  0  0  0  0
  5  6  1  0  0  0  0
  6  7  1  0  0  0  0
  6 10  2  0  0  0  0
  7  9  2  0  0  0  0
  8  7  2  0  0  0  0
 10 14  1  0  0  0  0
 11 10  1  0  0  0  0
 11 15  1  0  0  0  0
 12 17  1  0  0  0  0
 13  5  1  0  0  0  0
 16 18  2  0  0  0  0
 16 20  1  0  0  0  0
 17 16  1  0  0  0  0
 19 16  2  0  0  0  0
 20 21  1  0  0  0  0
M  RAD  3   2   2   3   3   4   2
M  END
