Coordinates from ORCA-job 4-NO2PhN2+~HSO4-_B3LYPG-6-31G_dp-CH-Scan-d09-49-n800
 OpenBabel11261919243D

 21 20  0  0  0  0  0  0  0  0999 V2000
   -1.6599   -0.4793   -0.5415 C   0  0  0  0  0  0  0  0  0  0  0  0
   -2.9294   -0.9812   -0.8809 N   0  0  0  0  0  0  0  0  0  0  0  0
   -3.9352   -1.3252   -1.2202 N   0  0  0  0  0  0  0  0  0  0  0  0
   -1.3024    0.6131   -1.3321 C   0  0  0  0  0  0  0  0  0  0  0  0
   -0.0057    1.0728   -0.9508 C   0  0  0  0  0  0  0  0  0  0  0  0
    0.7187    0.4732    0.0687 C   0  0  0  0  0  0  0  0  0  0  0  0
    2.0596    1.0103    0.4201 N   0  0  0  0  0  0  0  0  0  0  0  0
    2.4629    1.9893   -0.2013 O   0  0  0  0  0  0  0  0  0  0  0  0
    2.6843    0.4397    1.3141 O   0  0  0  0  0  0  0  0  0  0  0  0
    0.2632   -0.6374    0.8134 C   0  0  0  0  0  0  0  0  0  0  0  0
   -0.9764   -1.1489    0.5068 C   0  0  0  0  0  0  0  0  0  0  0  0
   -4.4781    2.9725   -2.0935 H   0  0  0  0  0  0  0  0  0  0  0  0
    0.4496    1.9192   -1.4571 H   0  0  0  0  0  0  0  0  0  0  0  0
    0.8866   -1.0538    1.5933 H   0  0  0  0  0  0  0  0  0  0  0  0
   -1.3940   -2.0021    1.0333 H   0  0  0  0  0  0  0  0  0  0  0  0
   -5.3037    2.6572   -0.1381 S   0  0  0  0  0  0  0  0  0  0  0  0
   -5.2015    3.3791   -1.5853 O   0  0  0  0  0  0  0  0  0  0  0  0
   -6.5641    3.0921    0.4209 O   0  0  0  0  0  0  0  0  0  0  0  0
   -4.9156    1.2680   -0.2683 O   0  0  0  0  0  0  0  0  0  0  0  0
   -4.0923    3.3672    0.6776 O   0  0  0  0  0  0  0  0  0  0  0  0
   -4.4136    4.2232    1.0098 H   0  0  0  0  0  0  0  0  0  0  0  0
  1 11  2  0  0  0  0
  2  1  1  0  0  0  0
  3  2  1  0  0  0  0
  4  5  2  0  0  0  0
  4  1  1  0  0  0  0
  5  6  1  0  0  0  0
  6  7  1  0  0  0  0
  6 10  2  0  0  0  0
  7  9  2  0  0  0  0
  8  7  2  0  0  0  0
 10 14  1  0  0  0  0
 11 10  1  0  0  0  0
 11 15  1  0  0  0  0
 12 17  1  0  0  0  0
 13  5  1  0  0  0  0
 16 18  2  0  0  0  0
 16 20  1  0  0  0  0
 17 16  1  0  0  0  0
 19 16  2  0  0  0  0
 20 21  1  0  0  0  0
M  RAD  3   2   2   3   3   4   2
M  END
