Coordinates from ORCA-job 4-NO2PhN2+~HSO4-_B3LYPG-6-31G_dp-CH-Scan-d09-49-n800
 OpenBabel11261919243D

 21 20  0  0  0  0  0  0  0  0999 V2000
   -1.6461   -0.3786   -0.0995 C   0  0  0  0  0  0  0  0  0  0  0  0
   -2.9844   -0.7963   -0.1590 N   0  0  0  0  0  0  0  0  0  0  0  0
   -4.0592   -1.0856   -0.2321 N   0  0  0  0  0  0  0  0  0  0  0  0
   -1.4476    0.9200   -0.5785 C   0  0  0  0  0  0  0  0  0  0  0  0
   -0.0660    1.2612   -0.4931 C   0  0  0  0  0  0  0  0  0  0  0  0
    0.8829    0.3794    0.0030 C   0  0  0  0  0  0  0  0  0  0  0  0
    2.3072    0.8029    0.0611 N   0  0  0  0  0  0  0  0  0  0  0  0
    2.5828    1.9304   -0.3373 O   0  0  0  0  0  0  0  0  0  0  0  0
    3.1206   -0.0060    0.5064 O   0  0  0  0  0  0  0  0  0  0  0  0
    0.5846   -0.9195    0.4669 C   0  0  0  0  0  0  0  0  0  0  0  0
   -0.7276   -1.3297    0.4202 C   0  0  0  0  0  0  0  0  0  0  0  0
   -3.6866    2.8311   -1.4596 H   0  0  0  0  0  0  0  0  0  0  0  0
    0.2808    2.2366   -0.8206 H   0  0  0  0  0  0  0  0  0  0  0  0
    1.3773   -1.5527    0.8415 H   0  0  0  0  0  0  0  0  0  0  0  0
   -1.0335   -2.3148    0.7597 H   0  0  0  0  0  0  0  0  0  0  0  0
   -5.6055    2.7836   -0.5113 S   0  0  0  0  0  0  0  0  0  0  0  0
   -4.5305    3.3026   -1.5959 O   0  0  0  0  0  0  0  0  0  0  0  0
   -6.8907    3.2645   -0.9697 O   0  0  0  0  0  0  0  0  0  0  0  0
   -5.3380    1.3967   -0.1862 O   0  0  0  0  0  0  0  0  0  0  0  0
   -5.1808    3.6207    0.8174 O   0  0  0  0  0  0  0  0  0  0  0  0
   -5.5863    4.5025    0.7553 H   0  0  0  0  0  0  0  0  0  0  0  0
  1 11  2  0  0  0  0
  2  1  1  0  0  0  0
  3  2  1  0  0  0  0
  4  5  2  0  0  0  0
  4  1  1  0  0  0  0
  5  6  1  0  0  0  0
  6  7  1  0  0  0  0
  6 10  2  0  0  0  0
  7  9  2  0  0  0  0
  8  7  2  0  0  0  0
 10 14  1  0  0  0  0
 11 10  1  0  0  0  0
 11 15  1  0  0  0  0
 13  5  1  0  0  0  0
 16 19  2  0  0  0  0
 16 20  1  0  0  0  0
 17 12  1  0  0  0  0
 17 16  1  0  0  0  0
 18 16  2  0  0  0  0
 21 20  1  0  0  0  0
M  RAD  3   2   2   3   3   4   2
M  END
