Coordinates from ORCA-job 4-NO2PhN2+~HSO4-_B3LYPG-6-31G_dp-CH-Scan-d09-49-n800
 OpenBabel11261919243D

 21 20  0  0  0  0  0  0  0  0999 V2000
   -1.7949   -0.3647   -0.1306 C   0  0  0  0  0  0  0  0  0  0  0  0
   -3.1090   -0.8408   -0.1979 N   0  0  0  0  0  0  0  0  0  0  0  0
   -4.1673   -1.1828   -0.2689 N   0  0  0  0  0  0  0  0  0  0  0  0
   -1.6384    0.9591   -0.5606 C   0  0  0  0  0  0  0  0  0  0  0  0
   -0.2755    1.3541   -0.4672 C   0  0  0  0  0  0  0  0  0  0  0  0
    0.7095    0.4924   -0.0068 C   0  0  0  0  0  0  0  0  0  0  0  0
    2.1159    0.9707    0.0623 N   0  0  0  0  0  0  0  0  0  0  0  0
    2.3438    2.1193   -0.3031 O   0  0  0  0  0  0  0  0  0  0  0  0
    2.9616    0.1779    0.4738 O   0  0  0  0  0  0  0  0  0  0  0  0
    0.4635   -0.8315    0.4087 C   0  0  0  0  0  0  0  0  0  0  0  0
   -0.8324   -1.2912    0.3499 C   0  0  0  0  0  0  0  0  0  0  0  0
   -3.3499    2.3677   -1.2515 H   0  0  0  0  0  0  0  0  0  0  0  0
    0.0276    2.3541   -0.7596 H   0  0  0  0  0  0  0  0  0  0  0  0
    1.2811   -1.4474    0.7581 H   0  0  0  0  0  0  0  0  0  0  0  0
   -1.0968   -2.2991    0.6544 H   0  0  0  0  0  0  0  0  0  0  0  0
   -5.3238    2.6878   -0.4728 S   0  0  0  0  0  0  0  0  0  0  0  0
   -4.1253    2.9357   -1.5000 O   0  0  0  0  0  0  0  0  0  0  0  0
   -6.5023    3.2907   -1.0606 O   0  0  0  0  0  0  0  0  0  0  0  0
   -5.2937    1.3152    0.0015 O   0  0  0  0  0  0  0  0  0  0  0  0
   -4.8791    3.5835    0.8149 O   0  0  0  0  0  0  0  0  0  0  0  0
   -5.1613    4.4982    0.6447 H   0  0  0  0  0  0  0  0  0  0  0  0
  1 11  2  0  0  0  0
  2  1  1  0  0  0  0
  3  2  1  0  0  0  0
  4  5  2  0  0  0  0
  4  1  1  0  0  0  0
  5  6  1  0  0  0  0
  6  7  1  0  0  0  0
  6 10  2  0  0  0  0
  7  9  2  0  0  0  0
  8  7  2  0  0  0  0
 10 14  1  0  0  0  0
 11 10  1  0  0  0  0
 11 15  1  0  0  0  0
 13  5  1  0  0  0  0
 16 19  2  0  0  0  0
 16 20  1  0  0  0  0
 17 12  1  0  0  0  0
 17 16  1  0  0  0  0
 18 16  2  0  0  0  0
 21 20  1  0  0  0  0
M  RAD  3   2   2   3   3   4   2
M  END
