Coordinates from ORCA-job 4-NO2PhN2+~HSO4-_B3LYPG-6-31G_dp-CH-Scan-d09-49-n800
 OpenBabel11261919243D

 21 20  0  0  0  0  0  0  0  0999 V2000
   -2.0228    0.0600   -0.3472 C   0  0  0  0  0  0  0  0  0  0  0  0
   -3.3737   -0.2072   -0.5404 N   0  0  0  0  0  0  0  0  0  0  0  0
   -4.4442   -0.4556   -0.7643 N   0  0  0  0  0  0  0  0  0  0  0  0
   -1.5211    1.3281   -0.6824 C   0  0  0  0  0  0  0  0  0  0  0  0
   -0.1543    1.5294   -0.5116 C   0  0  0  0  0  0  0  0  0  0  0  0
    0.6313    0.4964   -0.0063 C   0  0  0  0  0  0  0  0  0  0  0  0
    2.0831    0.7345    0.1813 N   0  0  0  0  0  0  0  0  0  0  0  0
    2.5153    1.8374   -0.1336 O   0  0  0  0  0  0  0  0  0  0  0  0
    2.7460   -0.1930    0.6373 O   0  0  0  0  0  0  0  0  0  0  0  0
    0.1210   -0.7569    0.3333 C   0  0  0  0  0  0  0  0  0  0  0  0
   -1.2346   -0.9893    0.1528 C   0  0  0  0  0  0  0  0  0  0  0  0
   -2.1322    2.0545   -1.0276 H   0  0  0  0  0  0  0  0  0  0  0  0
    0.3002    2.4819   -0.7527 H   0  0  0  0  0  0  0  0  0  0  0  0
    0.7829   -1.5195    0.7222 H   0  0  0  0  0  0  0  0  0  0  0  0
   -1.6797   -1.9469    0.3962 H   0  0  0  0  0  0  0  0  0  0  0  0
   -4.7497    2.5582   -0.3374 S   0  0  0  0  0  0  0  0  0  0  0  0
   -4.0370    3.2304   -1.4320 O   0  0  0  0  0  0  0  0  0  0  0  0
   -5.7093    1.4855   -0.7637 O   0  0  0  0  0  0  0  0  0  0  0  0
   -3.8608    2.0529    0.7459 O   0  0  0  0  0  0  0  0  0  0  0  0
   -5.6793    3.7428    0.3178 O   0  0  0  0  0  0  0  0  0  0  0  0
   -6.2280    3.3255    1.0012 H   0  0  0  0  0  0  0  0  0  0  0  0
  1 11  2  0  0  0  0
  2  1  1  0  0  0  0
  3  2  1  0  0  0  0
  4  5  2  0  0  0  0
  4  1  1  0  0  0  0
  5  6  1  0  0  0  0
  6  7  1  0  0  0  0
  6 10  2  0  0  0  0
  7  9  2  0  0  0  0
  8  7  2  0  0  0  0
 10 14  1  0  0  0  0
 11 10  1  0  0  0  0
 11 15  1  0  0  0  0
 12  4  1  0  0  0  0
 13  5  1  0  0  0  0
 16 20  1  0  0  0  0
 16 19  1  0  0  0  0
 17 16  2  0  0  0  0
 18 16  2  0  0  0  0
 20 21  1  0  0  0  0
M  RAD  3   2   2   3   3  19   2
M  END
