Coordinates from ORCA-job 4-NO2PhN2+~HSO4-_B3LYPG-6-31G_dp-CH-Scan-d09-49-n800
 OpenBabel11261919243D

 21 20  0  0  0  0  0  0  0  0999 V2000
   -1.8876   -0.3541   -0.1595 C   0  0  0  0  0  0  0  0  0  0  0  0
   -3.1871   -0.8624   -0.2351 N   0  0  0  0  0  0  0  0  0  0  0  0
   -4.2353   -1.2307   -0.3104 N   0  0  0  0  0  0  0  0  0  0  0  0
   -1.7483    0.9795   -0.5684 C   0  0  0  0  0  0  0  0  0  0  0  0
   -0.3983    1.4036   -0.4680 C   0  0  0  0  0  0  0  0  0  0  0  0
    0.6037    0.5561   -0.0169 C   0  0  0  0  0  0  0  0  0  0  0  0
    1.9992    1.0637    0.0618 N   0  0  0  0  0  0  0  0  0  0  0  0
    2.2011    2.2222   -0.2860 O   0  0  0  0  0  0  0  0  0  0  0  0
    2.8585    0.2851    0.4710 O   0  0  0  0  0  0  0  0  0  0  0  0
    0.3830   -0.7764    0.3787 C   0  0  0  0  0  0  0  0  0  0  0  0
   -0.9037   -1.2621    0.3092 C   0  0  0  0  0  0  0  0  0  0  0  0
   -3.1305    2.1076   -1.1161 H   0  0  0  0  0  0  0  0  0  0  0  0
   -0.1199    2.4145   -0.7463 H   0  0  0  0  0  0  0  0  0  0  0  0
    1.2114   -1.3811    0.7223 H   0  0  0  0  0  0  0  0  0  0  0  0
   -1.1475   -2.2791    0.5990 H   0  0  0  0  0  0  0  0  0  0  0  0
   -5.1294    2.6253   -0.4439 S   0  0  0  0  0  0  0  0  0  0  0  0
   -3.8905    2.7397   -1.4169 O   0  0  0  0  0  0  0  0  0  0  0  0
   -6.2696    3.2370   -1.1003 O   0  0  0  0  0  0  0  0  0  0  0  0
   -5.1926    1.2865    0.1273 O   0  0  0  0  0  0  0  0  0  0  0  0
   -4.7023    3.5835    0.8106 O   0  0  0  0  0  0  0  0  0  0  0  0
   -4.9612    4.4905    0.5766 H   0  0  0  0  0  0  0  0  0  0  0  0
  1 11  2  0  0  0  0
  2  1  1  0  0  0  0
  3  2  1  0  0  0  0
  4  5  2  0  0  0  0
  4  1  1  0  0  0  0
  5  6  1  0  0  0  0
  6  7  1  0  0  0  0
  6 10  2  0  0  0  0
  7  9  2  0  0  0  0
  8  7  2  0  0  0  0
 10 14  1  0  0  0  0
 11 10  1  0  0  0  0
 11 15  1  0  0  0  0
 13  5  1  0  0  0  0
 16 19  2  0  0  0  0
 16 20  1  0  0  0  0
 17 12  1  0  0  0  0
 17 16  1  0  0  0  0
 18 16  2  0  0  0  0
 21 20  1  0  0  0  0
M  RAD  3   2   2   3   3   4   2
M  END
