Coordinates from ORCA-job 4-NO2PhN2+~HSO4-_B3LYPG-6-31G_dp-CH-Scan-d09-49-n800
 OpenBabel11261919243D

 21 20  0  0  0  0  0  0  0  0999 V2000
   -1.9019   -0.3511   -0.1660 C   0  0  0  0  0  0  0  0  0  0  0  0
   -3.1994   -0.8629   -0.2444 N   0  0  0  0  0  0  0  0  0  0  0  0
   -4.2461   -1.2347   -0.3214 N   0  0  0  0  0  0  0  0  0  0  0  0
   -1.7623    0.9836   -0.5716 C   0  0  0  0  0  0  0  0  0  0  0  0
   -0.4144    1.4111   -0.4695 C   0  0  0  0  0  0  0  0  0  0  0  0
    0.5888    0.5647   -0.0189 C   0  0  0  0  0  0  0  0  0  0  0  0
    1.9831    1.0751    0.0623 N   0  0  0  0  0  0  0  0  0  0  0  0
    2.1827    2.2343   -0.2841 O   0  0  0  0  0  0  0  0  0  0  0  0
    2.8431    0.2978    0.4724 O   0  0  0  0  0  0  0  0  0  0  0  0
    0.3699   -0.7686    0.3739 C   0  0  0  0  0  0  0  0  0  0  0  0
   -0.9160   -1.2568    0.3017 C   0  0  0  0  0  0  0  0  0  0  0  0
   -3.0899    2.0672   -1.0926 H   0  0  0  0  0  0  0  0  0  0  0  0
   -0.1390    2.4234   -0.7456 H   0  0  0  0  0  0  0  0  0  0  0  0
    1.1988   -1.3726    0.7176 H   0  0  0  0  0  0  0  0  0  0  0  0
   -1.1579   -2.2748    0.5894 H   0  0  0  0  0  0  0  0  0  0  0  0
   -5.0972    2.6149   -0.4364 S   0  0  0  0  0  0  0  0  0  0  0  0
   -3.8549    2.7133   -1.3997 O   0  0  0  0  0  0  0  0  0  0  0  0
   -6.2389    3.2130   -1.1039 O   0  0  0  0  0  0  0  0  0  0  0  0
   -5.1632    1.2846    0.1573 O   0  0  0  0  0  0  0  0  0  0  0  0
   -4.6811    3.5936    0.8074 O   0  0  0  0  0  0  0  0  0  0  0  0
   -4.9506    4.4940    0.5608 H   0  0  0  0  0  0  0  0  0  0  0  0
  1 11  2  0  0  0  0
  2  1  1  0  0  0  0
  3  2  1  0  0  0  0
  4  5  2  0  0  0  0
  4  1  1  0  0  0  0
  5  6  1  0  0  0  0
  6  7  1  0  0  0  0
  6 10  2  0  0  0  0
  7  9  2  0  0  0  0
  8  7  2  0  0  0  0
 10 14  1  0  0  0  0
 11 10  1  0  0  0  0
 11 15  1  0  0  0  0
 13  5  1  0  0  0  0
 16 19  2  0  0  0  0
 16 20  1  0  0  0  0
 17 12  1  0  0  0  0
 17 16  1  0  0  0  0
 18 16  2  0  0  0  0
 21 20  1  0  0  0  0
M  RAD  3   2   2   3   3   4   2
M  END
