Coordinates from ORCA-job 4-NO2PhN2+~HSO4-_B3LYPG-6-31G_dp-CH-Scan-d09-49-n800
 OpenBabel11261919243D

 21 20  0  0  0  0  0  0  0  0999 V2000
   -1.6845   -0.4991   -0.6672 C   0  0  0  0  0  0  0  0  0  0  0  0
   -2.9202   -1.0347   -1.0729 N   0  0  0  0  0  0  0  0  0  0  0  0
   -3.8926   -1.4126   -1.4691 N   0  0  0  0  0  0  0  0  0  0  0  0
   -1.2368    0.4885   -1.5442 C   0  0  0  0  0  0  0  0  0  0  0  0
    0.0194    0.9935   -1.0910 C   0  0  0  0  0  0  0  0  0  0  0  0
    0.6285    0.5248    0.0638 C   0  0  0  0  0  0  0  0  0  0  0  0
    1.9306    1.1052    0.4853 N   0  0  0  0  0  0  0  0  0  0  0  0
    2.4048    2.0043   -0.2034 O   0  0  0  0  0  0  0  0  0  0  0  0
    2.4550    0.6484    1.5010 O   0  0  0  0  0  0  0  0  0  0  0  0
    0.0873   -0.4877    0.8870 C   0  0  0  0  0  0  0  0  0  0  0  0
   -1.1200   -1.0350    0.5191 C   0  0  0  0  0  0  0  0  0  0  0  0
   -4.6021    2.9944   -2.0742 H   0  0  0  0  0  0  0  0  0  0  0  0
    0.5335    1.7720   -1.6477 H   0  0  0  0  0  0  0  0  0  0  0  0
    0.6224   -0.8043    1.7721 H   0  0  0  0  0  0  0  0  0  0  0  0
   -1.5995   -1.8172    1.1005 H   0  0  0  0  0  0  0  0  0  0  0  0
   -5.1204    2.5679   -0.0366 S   0  0  0  0  0  0  0  0  0  0  0  0
   -5.2365    3.3710   -1.4396 O   0  0  0  0  0  0  0  0  0  0  0  0
   -6.2865    2.9520    0.7266 O   0  0  0  0  0  0  0  0  0  0  0  0
   -4.7477    1.1940   -0.3059 O   0  0  0  0  0  0  0  0  0  0  0  0
   -3.8053    3.2454    0.6304 O   0  0  0  0  0  0  0  0  0  0  0  0
   -4.0760    4.0782    1.0546 H   0  0  0  0  0  0  0  0  0  0  0  0
  1 11  2  0  0  0  0
  2  1  1  0  0  0  0
  3  2  1  0  0  0  0
  4  5  2  0  0  0  0
  4  1  1  0  0  0  0
  5  6  1  0  0  0  0
  6  7  1  0  0  0  0
  6 10  2  0  0  0  0
  7  9  2  0  0  0  0
  8  7  2  0  0  0  0
 10 14  1  0  0  0  0
 11 10  1  0  0  0  0
 11 15  1  0  0  0  0
 12 17  1  0  0  0  0
 13  5  1  0  0  0  0
 16 20  1  0  0  0  0
 16 18  2  0  0  0  0
 17 16  1  0  0  0  0
 19 16  2  0  0  0  0
 20 21  1  0  0  0  0
M  RAD  3   2   2   3   3   4   2
M  END
