Coordinates from ORCA-job 4-NO2PhN2+~HSO4-_B3LYPG-6-31G_dp-CH-Scan-d09-49-n800
 OpenBabel11261919243D

 21 20  0  0  0  0  0  0  0  0999 V2000
   -1.6431   -0.3795   -0.0989 C   0  0  0  0  0  0  0  0  0  0  0  0
   -2.9818   -0.7963   -0.1581 N   0  0  0  0  0  0  0  0  0  0  0  0
   -4.0571   -1.0840   -0.2313 N   0  0  0  0  0  0  0  0  0  0  0  0
   -1.4442    0.9189   -0.5789 C   0  0  0  0  0  0  0  0  0  0  0  0
   -0.0623    1.2592   -0.4936 C   0  0  0  0  0  0  0  0  0  0  0  0
    0.8860    0.3772    0.0033 C   0  0  0  0  0  0  0  0  0  0  0  0
    2.3105    0.8000    0.0613 N   0  0  0  0  0  0  0  0  0  0  0  0
    2.5868    1.9271   -0.3377 O   0  0  0  0  0  0  0  0  0  0  0  0
    3.1235   -0.0092    0.5068 O   0  0  0  0  0  0  0  0  0  0  0  0
    0.5871   -0.9212    0.4681 C   0  0  0  0  0  0  0  0  0  0  0  0
   -0.7254   -1.3308    0.4216 C   0  0  0  0  0  0  0  0  0  0  0  0
   -3.6933    2.8405   -1.4639 H   0  0  0  0  0  0  0  0  0  0  0  0
    0.2852    2.2341   -0.8217 H   0  0  0  0  0  0  0  0  0  0  0  0
    1.3794   -1.5546    0.8431 H   0  0  0  0  0  0  0  0  0  0  0  0
   -1.0318   -2.3155    0.7617 H   0  0  0  0  0  0  0  0  0  0  0  0
   -5.6108    2.7858   -0.5121 S   0  0  0  0  0  0  0  0  0  0  0  0
   -4.5389    3.3099   -1.5977 O   0  0  0  0  0  0  0  0  0  0  0  0
   -6.8981    3.2636   -0.9675 O   0  0  0  0  0  0  0  0  0  0  0  0
   -5.3380    1.3994   -0.1905 O   0  0  0  0  0  0  0  0  0  0  0  0
   -5.1862    3.6219    0.8173 O   0  0  0  0  0  0  0  0  0  0  0  0
   -5.5942    4.5027    0.7573 H   0  0  0  0  0  0  0  0  0  0  0  0
  1 11  2  0  0  0  0
  2  1  1  0  0  0  0
  3  2  1  0  0  0  0
  4  5  2  0  0  0  0
  4  1  1  0  0  0  0
  5  6  1  0  0  0  0
  6  7  1  0  0  0  0
  6 10  2  0  0  0  0
  7  9  2  0  0  0  0
  8  7  2  0  0  0  0
 10 14  1  0  0  0  0
 11 10  1  0  0  0  0
 11 15  1  0  0  0  0
 13  5  1  0  0  0  0
 16 19  2  0  0  0  0
 16 20  1  0  0  0  0
 17 12  1  0  0  0  0
 17 16  1  0  0  0  0
 18 16  2  0  0  0  0
 21 20  1  0  0  0  0
M  RAD  3   2   2   3   3   4   2
M  END
