Coordinates from ORCA-job 4-NO2PhN2+~HSO4-_B3LYPG-6-31G_dp-CH-Scan-d09-49-n800
 OpenBabel11261919243D

 21 20  0  0  0  0  0  0  0  0999 V2000
   -1.6103   -0.3830   -0.0960 C   0  0  0  0  0  0  0  0  0  0  0  0
   -2.9543   -0.7856   -0.1556 N   0  0  0  0  0  0  0  0  0  0  0  0
   -4.0333   -1.0592   -0.2298 N   0  0  0  0  0  0  0  0  0  0  0  0
   -1.4014    0.9095   -0.5857 C   0  0  0  0  0  0  0  0  0  0  0  0
   -0.0162    1.2385   -0.4992 C   0  0  0  0  0  0  0  0  0  0  0  0
    0.9233    0.3527    0.0072 C   0  0  0  0  0  0  0  0  0  0  0  0
    2.3511    0.7640    0.0667 N   0  0  0  0  0  0  0  0  0  0  0  0
    2.6378    1.8870   -0.3368 O   0  0  0  0  0  0  0  0  0  0  0  0
    3.1566   -0.0493    0.5184 O   0  0  0  0  0  0  0  0  0  0  0  0
    0.6126   -0.9402    0.4808 C   0  0  0  0  0  0  0  0  0  0  0  0
   -0.7031   -1.3392    0.4339 C   0  0  0  0  0  0  0  0  0  0  0  0
   -3.7805    2.9394   -1.5163 H   0  0  0  0  0  0  0  0  0  0  0  0
    0.3407    2.2079   -0.8340 H   0  0  0  0  0  0  0  0  0  0  0  0
    1.3988   -1.5772    0.8624 H   0  0  0  0  0  0  0  0  0  0  0  0
   -1.0188   -2.3189    0.7801 H   0  0  0  0  0  0  0  0  0  0  0  0
   -5.6692    2.8054   -0.5162 S   0  0  0  0  0  0  0  0  0  0  0  0
   -4.6427    3.3818   -1.6221 O   0  0  0  0  0  0  0  0  0  0  0  0
   -6.9824    3.2450   -0.9340 O   0  0  0  0  0  0  0  0  0  0  0  0
   -5.3387    1.4256   -0.2227 O   0  0  0  0  0  0  0  0  0  0  0  0
   -5.2391    3.6387    0.8125 O   0  0  0  0  0  0  0  0  0  0  0  0
   -5.6775    4.5061    0.7752 H   0  0  0  0  0  0  0  0  0  0  0  0
  1 11  2  0  0  0  0
  2  1  1  0  0  0  0
  3  2  1  0  0  0  0
  4  5  2  0  0  0  0
  4  1  1  0  0  0  0
  5  6  1  0  0  0  0
  6  7  1  0  0  0  0
  6 10  2  0  0  0  0
  7  9  2  0  0  0  0
  8  7  2  0  0  0  0
 10 14  1  0  0  0  0
 11 10  1  0  0  0  0
 11 15  1  0  0  0  0
 13  5  1  0  0  0  0
 16 19  2  0  0  0  0
 16 20  1  0  0  0  0
 17 12  1  0  0  0  0
 17 16  1  0  0  0  0
 18 16  2  0  0  0  0
 21 20  1  0  0  0  0
M  RAD  3   2   2   3   3   4   2
M  END
