Coordinates from ORCA-job 4-NO2PhN2+~HSO4-_B3LYPG-6-31G_dp-CH-Scan-d09-49-n800
 OpenBabel11261919243D

 21 20  0  0  0  0  0  0  0  0999 V2000
   -1.6880   -0.3735   -0.1052 C   0  0  0  0  0  0  0  0  0  0  0  0
   -3.0197   -0.8080   -0.1649 N   0  0  0  0  0  0  0  0  0  0  0  0
   -4.0899   -1.1134   -0.2351 N   0  0  0  0  0  0  0  0  0  0  0  0
   -1.5017    0.9328   -0.5702 C   0  0  0  0  0  0  0  0  0  0  0  0
   -0.1245    1.2883   -0.4848 C   0  0  0  0  0  0  0  0  0  0  0  0
    0.8350    0.4111   -0.0012 C   0  0  0  0  0  0  0  0  0  0  0  0
    2.2549    0.8491    0.0572 N   0  0  0  0  0  0  0  0  0  0  0  0
    2.5171    1.9829   -0.3318 O   0  0  0  0  0  0  0  0  0  0  0  0
    3.0775    0.0447    0.4934 O   0  0  0  0  0  0  0  0  0  0  0  0
    0.5516   -0.8953    0.4494 C   0  0  0  0  0  0  0  0  0  0  0  0
   -0.7566   -1.3188    0.4016 C   0  0  0  0  0  0  0  0  0  0  0  0
   -3.5836    2.6993   -1.3959 H   0  0  0  0  0  0  0  0  0  0  0  0
    0.2103    2.2708   -0.8025 H   0  0  0  0  0  0  0  0  0  0  0  0
    1.3516   -1.5244    0.8153 H   0  0  0  0  0  0  0  0  0  0  0  0
   -1.0508   -2.3105    0.7315 H   0  0  0  0  0  0  0  0  0  0  0  0
   -5.5292    2.7573   -0.5038 S   0  0  0  0  0  0  0  0  0  0  0  0
   -4.4056    3.2023   -1.5668 O   0  0  0  0  0  0  0  0  0  0  0  0
   -6.7808    3.2822   -1.0058 O   0  0  0  0  0  0  0  0  0  0  0  0
   -5.3351    1.3673   -0.1396 O   0  0  0  0  0  0  0  0  0  0  0  0
   -5.1058    3.6045    0.8198 O   0  0  0  0  0  0  0  0  0  0  0  0
   -5.4734    4.5001    0.7280 H   0  0  0  0  0  0  0  0  0  0  0  0
  1 11  2  0  0  0  0
  2  1  1  0  0  0  0
  3  2  1  0  0  0  0
  4  5  2  0  0  0  0
  4  1  1  0  0  0  0
  5  6  1  0  0  0  0
  6  7  1  0  0  0  0
  6 10  2  0  0  0  0
  7  9  2  0  0  0  0
  8  7  2  0  0  0  0
 10 14  1  0  0  0  0
 11 10  1  0  0  0  0
 11 15  1  0  0  0  0
 13  5  1  0  0  0  0
 16 19  2  0  0  0  0
 16 20  1  0  0  0  0
 17 12  1  0  0  0  0
 17 16  1  0  0  0  0
 18 16  2  0  0  0  0
 21 20  1  0  0  0  0
M  RAD  3   2   2   3   3   4   2
M  END
