Coordinates from ORCA-job 4-NO2PhN2+~HSO4-_B3LYPG-6-31G_dp-CH-Scan-d09-49-n800
 OpenBabel11261919243D

 21 20  0  0  0  0  0  0  0  0999 V2000
   -2.0216    0.0599   -0.3494 C   0  0  0  0  0  0  0  0  0  0  0  0
   -3.3725   -0.2077   -0.5433 N   0  0  0  0  0  0  0  0  0  0  0  0
   -4.4428   -0.4561   -0.7679 N   0  0  0  0  0  0  0  0  0  0  0  0
   -1.5191    1.3269   -0.6863 C   0  0  0  0  0  0  0  0  0  0  0  0
   -0.1525    1.5283   -0.5150 C   0  0  0  0  0  0  0  0  0  0  0  0
    0.6323    0.4959   -0.0072 C   0  0  0  0  0  0  0  0  0  0  0  0
    2.0841    0.7335    0.1809 N   0  0  0  0  0  0  0  0  0  0  0  0
    2.5170    1.8359   -0.1354 O   0  0  0  0  0  0  0  0  0  0  0  0
    2.7461   -0.1928    0.6404 O   0  0  0  0  0  0  0  0  0  0  0  0
    0.1212   -0.7566    0.3346 C   0  0  0  0  0  0  0  0  0  0  0  0
   -1.2342   -0.9888    0.1535 C   0  0  0  0  0  0  0  0  0  0  0  0
   -2.1455    2.0708   -1.0410 H   0  0  0  0  0  0  0  0  0  0  0  0
    0.3028    2.4801   -0.7575 H   0  0  0  0  0  0  0  0  0  0  0  0
    0.7826   -1.5186    0.7255 H   0  0  0  0  0  0  0  0  0  0  0  0
   -1.6799   -1.9459    0.3985 H   0  0  0  0  0  0  0  0  0  0  0  0
   -4.7476    2.5547   -0.3287 S   0  0  0  0  0  0  0  0  0  0  0  0
   -4.0242    3.2231   -1.4194 O   0  0  0  0  0  0  0  0  0  0  0  0
   -5.7100    1.4875   -0.7617 O   0  0  0  0  0  0  0  0  0  0  0  0
   -3.8675    2.0451    0.7597 O   0  0  0  0  0  0  0  0  0  0  0  0
   -5.6754    3.7450    0.3187 O   0  0  0  0  0  0  0  0  0  0  0  0
   -6.2400    3.3289    0.9899 H   0  0  0  0  0  0  0  0  0  0  0  0
  1 11  2  0  0  0  0
  2  1  1  0  0  0  0
  3  2  1  0  0  0  0
  4  5  2  0  0  0  0
  4  1  1  0  0  0  0
  5  6  1  0  0  0  0
  6  7  1  0  0  0  0
  6 10  2  0  0  0  0
  7  9  2  0  0  0  0
  8  7  2  0  0  0  0
 10 14  1  0  0  0  0
 11 10  1  0  0  0  0
 11 15  1  0  0  0  0
 12  4  1  0  0  0  0
 13  5  1  0  0  0  0
 16 20  1  0  0  0  0
 16 19  1  0  0  0  0
 17 16  2  0  0  0  0
 18 16  2  0  0  0  0
 20 21  1  0  0  0  0
M  RAD  3   2   2   3   3  19   2
M  END
