Coordinates from ORCA-job 4-NO2PhN2+~HSO4-_B3LYPG-6-31G_dp-CH-Scan-d09-49-n800
 OpenBabel11261919243D

 21 20  0  0  0  0  0  0  0  0999 V2000
   -1.8467   -0.3599   -0.1415 C   0  0  0  0  0  0  0  0  0  0  0  0
   -3.1526   -0.8550   -0.2094 N   0  0  0  0  0  0  0  0  0  0  0  0
   -4.2056   -1.2119   -0.2795 N   0  0  0  0  0  0  0  0  0  0  0  0
   -1.7029    0.9699   -0.5599 C   0  0  0  0  0  0  0  0  0  0  0  0
   -0.3468    1.3820   -0.4653 C   0  0  0  0  0  0  0  0  0  0  0  0
    0.6497    0.5290   -0.0129 C   0  0  0  0  0  0  0  0  0  0  0  0
    2.0498    1.0250    0.0585 N   0  0  0  0  0  0  0  0  0  0  0  0
    2.2609    2.1806   -0.2941 O   0  0  0  0  0  0  0  0  0  0  0  0
    2.9048    0.2410    0.4671 O   0  0  0  0  0  0  0  0  0  0  0  0
    0.4203   -0.8004    0.3913 C   0  0  0  0  0  0  0  0  0  0  0  0
   -0.8702   -1.2757    0.3296 C   0  0  0  0  0  0  0  0  0  0  0  0
   -3.2314    2.2244   -1.1770 H   0  0  0  0  0  0  0  0  0  0  0  0
   -0.0584    2.3884   -0.7502 H   0  0  0  0  0  0  0  0  0  0  0  0
    1.2454   -1.4095    0.7350 H   0  0  0  0  0  0  0  0  0  0  0  0
   -1.1216   -2.2892    0.6259 H   0  0  0  0  0  0  0  0  0  0  0  0
   -5.2189    2.6550   -0.4643 S   0  0  0  0  0  0  0  0  0  0  0  0
   -3.9902    2.8266   -1.4576 O   0  0  0  0  0  0  0  0  0  0  0  0
   -6.3650    3.2837   -1.0905 O   0  0  0  0  0  0  0  0  0  0  0  0
   -5.2575    1.2947    0.0491 O   0  0  0  0  0  0  0  0  0  0  0  0
   -4.7784    3.5665    0.8166 O   0  0  0  0  0  0  0  0  0  0  0  0
   -5.0311    4.4839    0.6178 H   0  0  0  0  0  0  0  0  0  0  0  0
  1 11  2  0  0  0  0
  2  1  1  0  0  0  0
  3  2  1  0  0  0  0
  4  5  2  0  0  0  0
  4  1  1  0  0  0  0
  5  6  1  0  0  0  0
  6  7  1  0  0  0  0
  6 10  2  0  0  0  0
  7  9  2  0  0  0  0
  8  7  2  0  0  0  0
 10 14  1  0  0  0  0
 11 10  1  0  0  0  0
 11 15  1  0  0  0  0
 13  5  1  0  0  0  0
 16 19  2  0  0  0  0
 16 20  1  0  0  0  0
 17 12  1  0  0  0  0
 17 16  1  0  0  0  0
 18 16  2  0  0  0  0
 21 20  1  0  0  0  0
M  RAD  3   2   2   3   3   4   2
M  END
