Coordinates from ORCA-job 4-NO2PhN2+~HSO4-_B3LYPG-6-31G_dp-CH-Scan-d09-49-n800
 OpenBabel11261919243D

 21 20  0  0  0  0  0  0  0  0999 V2000
   -1.6396   -0.3798   -0.0983 C   0  0  0  0  0  0  0  0  0  0  0  0
   -2.9789   -0.7947   -0.1574 N   0  0  0  0  0  0  0  0  0  0  0  0
   -4.0546   -1.0806   -0.2296 N   0  0  0  0  0  0  0  0  0  0  0  0
   -1.4395    0.9179   -0.5796 C   0  0  0  0  0  0  0  0  0  0  0  0
   -0.0572    1.2568   -0.4942 C   0  0  0  0  0  0  0  0  0  0  0  0
    0.8902    0.3743    0.0035 C   0  0  0  0  0  0  0  0  0  0  0  0
    2.3151    0.7958    0.0615 N   0  0  0  0  0  0  0  0  0  0  0  0
    2.5925    1.9225   -0.3378 O   0  0  0  0  0  0  0  0  0  0  0  0
    3.1273   -0.0139    0.5078 O   0  0  0  0  0  0  0  0  0  0  0  0
    0.5899   -0.9234    0.4695 C   0  0  0  0  0  0  0  0  0  0  0  0
   -0.7230   -1.3317    0.4231 C   0  0  0  0  0  0  0  0  0  0  0  0
   -3.7026    2.8529   -1.4698 H   0  0  0  0  0  0  0  0  0  0  0  0
    0.2914    2.2310   -0.8232 H   0  0  0  0  0  0  0  0  0  0  0  0
    1.3816   -1.5573    0.8452 H   0  0  0  0  0  0  0  0  0  0  0  0
   -1.0305   -2.3158    0.7640 H   0  0  0  0  0  0  0  0  0  0  0  0
   -5.6170    2.7878   -0.5130 S   0  0  0  0  0  0  0  0  0  0  0  0
   -4.5500    3.3191   -1.6003 O   0  0  0  0  0  0  0  0  0  0  0  0
   -6.9073    3.2612   -0.9643 O   0  0  0  0  0  0  0  0  0  0  0  0
   -5.3372    1.4019   -0.1953 O   0  0  0  0  0  0  0  0  0  0  0  0
   -5.1927    3.6230    0.8169 O   0  0  0  0  0  0  0  0  0  0  0  0
   -5.6047    4.5021    0.7600 H   0  0  0  0  0  0  0  0  0  0  0  0
  1 11  2  0  0  0  0
  2  1  1  0  0  0  0
  3  2  1  0  0  0  0
  4  5  2  0  0  0  0
  4  1  1  0  0  0  0
  5  6  1  0  0  0  0
  6  7  1  0  0  0  0
  6 10  2  0  0  0  0
  7  9  2  0  0  0  0
  8  7  2  0  0  0  0
 10 14  1  0  0  0  0
 11 10  1  0  0  0  0
 11 15  1  0  0  0  0
 13  5  1  0  0  0  0
 16 19  2  0  0  0  0
 16 20  1  0  0  0  0
 17 12  1  0  0  0  0
 17 16  1  0  0  0  0
 18 16  2  0  0  0  0
 21 20  1  0  0  0  0
M  RAD  3   2   2   3   3   4   2
M  END
