Coordinates from ORCA-job 4-NO2PhN2+~HSO4-_B3LYPG-6-31G_dp-CH-Scan-d09-49-n800
 OpenBabel11261919243D

 21 20  0  0  0  0  0  0  0  0999 V2000
   -1.9405   -0.3141   -0.1826 C   0  0  0  0  0  0  0  0  0  0  0  0
   -3.2431   -0.8048   -0.2670 N   0  0  0  0  0  0  0  0  0  0  0  0
   -4.2951   -1.1587   -0.3417 N   0  0  0  0  0  0  0  0  0  0  0  0
   -1.7636    1.0278   -0.5465 C   0  0  0  0  0  0  0  0  0  0  0  0
   -0.4197    1.4439   -0.4469 C   0  0  0  0  0  0  0  0  0  0  0  0
    0.5740    0.5683   -0.0298 C   0  0  0  0  0  0  0  0  0  0  0  0
    1.9758    1.0569    0.0545 N   0  0  0  0  0  0  0  0  0  0  0  0
    2.1860    2.2228   -0.2601 O   0  0  0  0  0  0  0  0  0  0  0  0
    2.8263    0.2554    0.4344 O   0  0  0  0  0  0  0  0  0  0  0  0
    0.3357   -0.7702    0.3232 C   0  0  0  0  0  0  0  0  0  0  0  0
   -0.9592   -1.2391    0.2471 C   0  0  0  0  0  0  0  0  0  0  0  0
   -2.8711    1.9428   -0.9447 H   0  0  0  0  0  0  0  0  0  0  0  0
   -0.1424    2.4621   -0.6958 H   0  0  0  0  0  0  0  0  0  0  0  0
    1.1572   -1.3975    0.6424 H   0  0  0  0  0  0  0  0  0  0  0  0
   -1.2118   -2.2615    0.5075 H   0  0  0  0  0  0  0  0  0  0  0  0
   -4.9913    2.5756   -0.3908 S   0  0  0  0  0  0  0  0  0  0  0  0
   -3.7265    2.6865   -1.2734 O   0  0  0  0  0  0  0  0  0  0  0  0
   -6.1839    2.9298   -1.1496 O   0  0  0  0  0  0  0  0  0  0  0  0
   -4.9543    1.3282    0.3812 O   0  0  0  0  0  0  0  0  0  0  0  0
   -4.7842    3.7498    0.7399 O   0  0  0  0  0  0  0  0  0  0  0  0
   -5.2150    4.5451    0.3874 H   0  0  0  0  0  0  0  0  0  0  0  0
  1 11  2  0  0  0  0
  2  1  1  0  0  0  0
  3  2  1  0  0  0  0
  4  5  2  0  0  0  0
  4  1  1  0  0  0  0
  5  6  1  0  0  0  0
  6  7  1  0  0  0  0
  6 10  2  0  0  0  0
  7  9  2  0  0  0  0
  8  7  2  0  0  0  0
 10 14  1  0  0  0  0
 11 10  1  0  0  0  0
 11 15  1  0  0  0  0
 13  5  1  0  0  0  0
 16 19  2  0  0  0  0
 16 20  1  0  0  0  0
 17 12  1  0  0  0  0
 17 16  1  0  0  0  0
 18 16  2  0  0  0  0
 21 20  1  0  0  0  0
M  RAD  3   2   2   3   3   4   2
M  END
