Coordinates from ORCA-job 4-NO2PhN2+~HSO4-_B3LYPG-6-31G_dp-CH-Scan-d09-49-n800
 OpenBabel11261919243D

 21 20  0  0  0  0  0  0  0  0999 V2000
   -1.8699   -0.3569   -0.1517 C   0  0  0  0  0  0  0  0  0  0  0  0
   -3.1720   -0.8599   -0.2242 N   0  0  0  0  0  0  0  0  0  0  0  0
   -4.2223   -1.2234   -0.2974 N   0  0  0  0  0  0  0  0  0  0  0  0
   -1.7294    0.9752   -0.5646 C   0  0  0  0  0  0  0  0  0  0  0  0
   -0.3767    1.3944   -0.4664 C   0  0  0  0  0  0  0  0  0  0  0  0
    0.6232    0.5448   -0.0149 C   0  0  0  0  0  0  0  0  0  0  0  0
    2.0205    1.0478    0.0609 N   0  0  0  0  0  0  0  0  0  0  0  0
    2.2260    2.2054   -0.2883 O   0  0  0  0  0  0  0  0  0  0  0  0
    2.8782    0.2670    0.4693 O   0  0  0  0  0  0  0  0  0  0  0  0
    0.3992   -0.7866    0.3842 C   0  0  0  0  0  0  0  0  0  0  0  0
   -0.8890   -1.2682    0.3179 C   0  0  0  0  0  0  0  0  0  0  0  0
   -3.1764    2.1576   -1.1436 H   0  0  0  0  0  0  0  0  0  0  0  0
   -0.0941    2.4035   -0.7473 H   0  0  0  0  0  0  0  0  0  0  0  0
    1.2263   -1.3930    0.7277 H   0  0  0  0  0  0  0  0  0  0  0  0
   -1.1358   -2.2838    0.6103 H   0  0  0  0  0  0  0  0  0  0  0  0
   -5.1686    2.6380   -0.4524 S   0  0  0  0  0  0  0  0  0  0  0  0
   -3.9345    2.7749   -1.4362 O   0  0  0  0  0  0  0  0  0  0  0  0
   -6.3102    3.2594   -1.0954 O   0  0  0  0  0  0  0  0  0  0  0  0
   -5.2230    1.2897    0.0939 O   0  0  0  0  0  0  0  0  0  0  0  0
   -4.7325    3.5752    0.8131 O   0  0  0  0  0  0  0  0  0  0  0  0
   -4.9855    4.4878    0.5939 H   0  0  0  0  0  0  0  0  0  0  0  0
  1 11  2  0  0  0  0
  2  1  1  0  0  0  0
  3  2  1  0  0  0  0
  4  5  2  0  0  0  0
  4  1  1  0  0  0  0
  5  6  1  0  0  0  0
  6  7  1  0  0  0  0
  6 10  2  0  0  0  0
  7  9  2  0  0  0  0
  8  7  2  0  0  0  0
 10 14  1  0  0  0  0
 11 10  1  0  0  0  0
 11 15  1  0  0  0  0
 13  5  1  0  0  0  0
 16 19  2  0  0  0  0
 16 20  1  0  0  0  0
 17 12  1  0  0  0  0
 17 16  1  0  0  0  0
 18 16  2  0  0  0  0
 21 20  1  0  0  0  0
M  RAD  3   2   2   3   3   4   2
M  END
