Coordinates from ORCA-job 4-NO2PhN2+~HSO4-_B3LYPG-6-31G_dp-CH-Scan-d09-49-n800
 OpenBabel11261919243D

 21 20  0  0  0  0  0  0  0  0999 V2000
   -1.9947    0.0015   -0.3083 C   0  0  0  0  0  0  0  0  0  0  0  0
   -3.3475   -0.2908   -0.4725 N   0  0  0  0  0  0  0  0  0  0  0  0
   -4.4202   -0.5395   -0.6564 N   0  0  0  0  0  0  0  0  0  0  0  0
   -1.5563    1.2991   -0.6089 C   0  0  0  0  0  0  0  0  0  0  0  0
   -0.1864    1.5248   -0.4616 C   0  0  0  0  0  0  0  0  0  0  0  0
    0.6399    0.4918   -0.0295 C   0  0  0  0  0  0  0  0  0  0  0  0
    2.0932    0.7585    0.1261 N   0  0  0  0  0  0  0  0  0  0  0  0
    2.4883    1.8870   -0.1422 O   0  0  0  0  0  0  0  0  0  0  0  0
    2.7936   -0.1738    0.5114 O   0  0  0  0  0  0  0  0  0  0  0  0
    0.1781   -0.7942    0.2703 C   0  0  0  0  0  0  0  0  0  0  0  0
   -1.1731   -1.0573    0.1259 C   0  0  0  0  0  0  0  0  0  0  0  0
   -2.4367    2.2106   -0.9620 H   0  0  0  0  0  0  0  0  0  0  0  0
    0.2425    2.4972   -0.6702 H   0  0  0  0  0  0  0  0  0  0  0  0
    0.8752   -1.5515    0.6034 H   0  0  0  0  0  0  0  0  0  0  0  0
   -1.5860   -2.0362    0.3419 H   0  0  0  0  0  0  0  0  0  0  0  0
   -4.7308    2.5265   -0.2147 S   0  0  0  0  0  0  0  0  0  0  0  0
   -3.7363    3.0458   -1.2078 O   0  0  0  0  0  0  0  0  0  0  0  0
   -5.7348    1.5937   -0.7922 O   0  0  0  0  0  0  0  0  0  0  0  0
   -4.0795    1.9899    0.9991 O   0  0  0  0  0  0  0  0  0  0  0  0
   -5.5602    3.8818    0.1926 O   0  0  0  0  0  0  0  0  0  0  0  0
   -6.4147    3.5840    0.5442 H   0  0  0  0  0  0  0  0  0  0  0  0
  1 11  2  0  0  0  0
  2  1  1  0  0  0  0
  3  2  1  0  0  0  0
  4  5  2  0  0  0  0
  4  1  1  0  0  0  0
  5  6  1  0  0  0  0
  6  7  1  0  0  0  0
  6 10  2  0  0  0  0
  7  9  2  0  0  0  0
  8  7  2  0  0  0  0
 10 14  1  0  0  0  0
 11 10  1  0  0  0  0
 11 15  1  0  0  0  0
 12  4  1  0  0  0  0
 13  5  1  0  0  0  0
 16 20  1  0  0  0  0
 16 19  1  0  0  0  0
 17 16  2  0  0  0  0
 18 16  2  0  0  0  0
 20 21  1  0  0  0  0
M  RAD  3   2   2   3   3  19   2
M  END
