Coordinates from ORCA-job 4-NO2PhN2+~HSO4-_B3LYPG-6-31G_dp-CH-Scan-d09-49-n800
 OpenBabel11261919243D

 21 20  0  0  0  0  0  0  0  0999 V2000
   -1.9305   -0.3254   -0.1770 C   0  0  0  0  0  0  0  0  0  0  0  0
   -3.2312   -0.8236   -0.2587 N   0  0  0  0  0  0  0  0  0  0  0  0
   -4.2808   -1.1856   -0.3335 N   0  0  0  0  0  0  0  0  0  0  0  0
   -1.7675    1.0173   -0.5455 C   0  0  0  0  0  0  0  0  0  0  0  0
   -0.4216    1.4355   -0.4459 C   0  0  0  0  0  0  0  0  0  0  0  0
    0.5767    0.5663   -0.0273 C   0  0  0  0  0  0  0  0  0  0  0  0
    1.9764    1.0613    0.0552 N   0  0  0  0  0  0  0  0  0  0  0  0
    2.1823    2.2273   -0.2621 O   0  0  0  0  0  0  0  0  0  0  0  0
    2.8315    0.2640    0.4346 O   0  0  0  0  0  0  0  0  0  0  0  0
    0.3459   -0.7733    0.3295 C   0  0  0  0  0  0  0  0  0  0  0  0
   -0.9463   -1.2477    0.2554 C   0  0  0  0  0  0  0  0  0  0  0  0
   -2.9300    1.9779   -0.9671 H   0  0  0  0  0  0  0  0  0  0  0  0
   -0.1454    2.4538   -0.6972 H   0  0  0  0  0  0  0  0  0  0  0  0
    1.1709   -1.3957    0.6494 H   0  0  0  0  0  0  0  0  0  0  0  0
   -1.1947   -2.2707    0.5179 H   0  0  0  0  0  0  0  0  0  0  0  0
   -5.0137    2.5859   -0.3983 S   0  0  0  0  0  0  0  0  0  0  0  0
   -3.7439    2.6893   -1.2903 O   0  0  0  0  0  0  0  0  0  0  0  0
   -6.1891    2.9886   -1.1563 O   0  0  0  0  0  0  0  0  0  0  0  0
   -5.0001    1.3233    0.3431 O   0  0  0  0  0  0  0  0  0  0  0  0
   -4.7707    3.7306    0.7516 O   0  0  0  0  0  0  0  0  0  0  0  0
   -5.1651    4.5500    0.4113 H   0  0  0  0  0  0  0  0  0  0  0  0
  1 11  2  0  0  0  0
  2  1  1  0  0  0  0
  3  2  1  0  0  0  0
  4  5  2  0  0  0  0
  4  1  1  0  0  0  0
  5  6  1  0  0  0  0
  6  7  1  0  0  0  0
  6 10  2  0  0  0  0
  7  9  2  0  0  0  0
  8  7  2  0  0  0  0
 10 14  1  0  0  0  0
 11 10  1  0  0  0  0
 11 15  1  0  0  0  0
 13  5  1  0  0  0  0
 16 19  2  0  0  0  0
 16 20  1  0  0  0  0
 17 12  1  0  0  0  0
 17 16  1  0  0  0  0
 18 16  2  0  0  0  0
 21 20  1  0  0  0  0
M  RAD  3   2   2   3   3   4   2
M  END
