Coordinates from ORCA-job 4-NO2PhN2+~HSO4-_B3LYPG-6-31G_dp-CH-Scan-d09-49-n800
 OpenBabel11261919243D

 21 20  0  0  0  0  0  0  0  0999 V2000
   -1.5785   -0.4313   -0.2647 C   0  0  0  0  0  0  0  0  0  0  0  0
   -2.9102   -0.8506   -0.4370 N   0  0  0  0  0  0  0  0  0  0  0  0
   -3.9755   -1.1284   -0.6191 N   0  0  0  0  0  0  0  0  0  0  0  0
   -1.3190    0.7892   -0.8904 C   0  0  0  0  0  0  0  0  0  0  0  0
    0.0471    1.1491   -0.6847 C   0  0  0  0  0  0  0  0  0  0  0  0
    0.9190    0.3532    0.0434 C   0  0  0  0  0  0  0  0  0  0  0  0
    2.3277    0.7936    0.2221 N   0  0  0  0  0  0  0  0  0  0  0  0
    2.6609    1.8602   -0.2859 O   0  0  0  0  0  0  0  0  0  0  0  0
    3.0740    0.0601    0.8703 O   0  0  0  0  0  0  0  0  0  0  0  0
    0.5553   -0.8738    0.6407 C   0  0  0  0  0  0  0  0  0  0  0  0
   -0.7441   -1.2989    0.4887 C   0  0  0  0  0  0  0  0  0  0  0  0
   -4.1923    3.0942   -1.9158 H   0  0  0  0  0  0  0  0  0  0  0  0
    0.4413    2.0724   -1.0994 H   0  0  0  0  0  0  0  0  0  0  0  0
    1.2918   -1.4426    1.1921 H   0  0  0  0  0  0  0  0  0  0  0  0
   -1.0977   -2.2326    0.9161 H   0  0  0  0  0  0  0  0  0  0  0  0
   -5.6580    2.8006   -0.3792 S   0  0  0  0  0  0  0  0  0  0  0  0
   -5.0617    3.4852   -1.7199 O   0  0  0  0  0  0  0  0  0  0  0  0
   -7.0509    3.1868   -0.3346 O   0  0  0  0  0  0  0  0  0  0  0  0
   -5.1970    1.4305   -0.2952 O   0  0  0  0  0  0  0  0  0  0  0  0
   -4.8572    3.5966    0.7893 O   0  0  0  0  0  0  0  0  0  0  0  0
   -5.3218    4.4355    0.9522 H   0  0  0  0  0  0  0  0  0  0  0  0
  1 11  2  0  0  0  0
  2  1  1  0  0  0  0
  3  2  1  0  0  0  0
  4  5  2  0  0  0  0
  4  1  1  0  0  0  0
  5  6  1  0  0  0  0
  6  7  1  0  0  0  0
  6 10  2  0  0  0  0
  7  9  2  0  0  0  0
  8  7  2  0  0  0  0
 10 14  1  0  0  0  0
 11 10  1  0  0  0  0
 11 15  1  0  0  0  0
 12 17  1  0  0  0  0
 13  5  1  0  0  0  0
 16 18  2  0  0  0  0
 16 19  2  0  0  0  0
 16 20  1  0  0  0  0
 17 16  1  0  0  0  0
 20 21  1  0  0  0  0
M  RAD  3   2   2   3   3   4   2
M  END
