Coordinates from ORCA-job 4-NO2PhN2+~HSO4-_B3LYPG-6-31G_dp-CH-Scan-d09-49-n800
 OpenBabel11261919243D

 21 20  0  0  0  0  0  0  0  0999 V2000
   -1.5830   -0.3878   -0.1020 C   0  0  0  0  0  0  0  0  0  0  0  0
   -2.9306   -0.7797   -0.1673 N   0  0  0  0  0  0  0  0  0  0  0  0
   -4.0122   -1.0414   -0.2482 N   0  0  0  0  0  0  0  0  0  0  0  0
   -1.3642    0.8975   -0.6050 C   0  0  0  0  0  0  0  0  0  0  0  0
    0.0230    1.2186   -0.5115 C   0  0  0  0  0  0  0  0  0  0  0  0
    0.9530    0.3330    0.0125 C   0  0  0  0  0  0  0  0  0  0  0  0
    2.3827    0.7363    0.0793 N   0  0  0  0  0  0  0  0  0  0  0  0
    2.6794    1.8542   -0.3315 O   0  0  0  0  0  0  0  0  0  0  0  0
    3.1803   -0.0778    0.5436 O   0  0  0  0  0  0  0  0  0  0  0  0
    0.6308   -0.9529    0.4981 C   0  0  0  0  0  0  0  0  0  0  0  0
   -0.6869   -1.3445    0.4455 C   0  0  0  0  0  0  0  0  0  0  0  0
   -3.8693    3.0257   -1.5785 H   0  0  0  0  0  0  0  0  0  0  0  0
    0.3888    2.1818   -0.8547 H   0  0  0  0  0  0  0  0  0  0  0  0
    1.4103   -1.5902    0.8925 H   0  0  0  0  0  0  0  0  0  0  0  0
   -1.0115   -2.3184    0.7997 H   0  0  0  0  0  0  0  0  0  0  0  0
   -5.7152    2.8202   -0.5123 S   0  0  0  0  0  0  0  0  0  0  0  0
   -4.7480    3.4399   -1.6498 O   0  0  0  0  0  0  0  0  0  0  0  0
   -7.0553    3.2232   -0.8778 O   0  0  0  0  0  0  0  0  0  0  0  0
   -5.3300    1.4492   -0.2478 O   0  0  0  0  0  0  0  0  0  0  0  0
   -5.2614    3.6541    0.8078 O   0  0  0  0  0  0  0  0  0  0  0  0
   -5.7272    4.5078    0.7963 H   0  0  0  0  0  0  0  0  0  0  0  0
  1 11  2  0  0  0  0
  2  1  1  0  0  0  0
  3  2  1  0  0  0  0
  4  5  2  0  0  0  0
  4  1  1  0  0  0  0
  5  6  1  0  0  0  0
  6  7  1  0  0  0  0
  6 10  2  0  0  0  0
  7  9  2  0  0  0  0
  8  7  2  0  0  0  0
 10 14  1  0  0  0  0
 11 10  1  0  0  0  0
 11 15  1  0  0  0  0
 13  5  1  0  0  0  0
 16 19  2  0  0  0  0
 16 20  1  0  0  0  0
 17 12  1  0  0  0  0
 17 16  1  0  0  0  0
 18 16  2  0  0  0  0
 21 20  1  0  0  0  0
M  RAD  3   2   2   3   3   4   2
M  END
