Coordinates from ORCA-job 4-NO2PhN2+~HSO4-_B3LYPG-6-31G_dp-CH-Scan-d09-49-n800
 OpenBabel11261919243D

 21 20  0  0  0  0  0  0  0  0999 V2000
   -1.7419   -0.3691   -0.1166 C   0  0  0  0  0  0  0  0  0  0  0  0
   -3.0649   -0.8250   -0.1793 N   0  0  0  0  0  0  0  0  0  0  0  0
   -4.1291   -1.1497   -0.2494 N   0  0  0  0  0  0  0  0  0  0  0  0
   -1.5713    0.9469   -0.5620 C   0  0  0  0  0  0  0  0  0  0  0  0
   -0.2011    1.3226   -0.4738 C   0  0  0  0  0  0  0  0  0  0  0  0
    0.7720    0.4523   -0.0047 C   0  0  0  0  0  0  0  0  0  0  0  0
    2.1853    0.9107    0.0578 N   0  0  0  0  0  0  0  0  0  0  0  0
    2.4294    2.0535   -0.3159 O   0  0  0  0  0  0  0  0  0  0  0  0
    3.0199    0.1123    0.4816 O   0  0  0  0  0  0  0  0  0  0  0  0
    0.5081   -0.8639    0.4265 C   0  0  0  0  0  0  0  0  0  0  0  0
   -0.7940   -1.3059    0.3742 C   0  0  0  0  0  0  0  0  0  0  0  0
   -3.4623    2.5255   -1.3195 H   0  0  0  0  0  0  0  0  0  0  0  0
    0.1174    2.3147   -0.7775 H   0  0  0  0  0  0  0  0  0  0  0  0
    1.3175   -1.4868    0.7821 H   0  0  0  0  0  0  0  0  0  0  0  0
   -1.0726   -2.3064    0.6903 H   0  0  0  0  0  0  0  0  0  0  0  0
   -5.4275    2.7229   -0.4884 S   0  0  0  0  0  0  0  0  0  0  0  0
   -4.2582    3.0635   -1.5325 O   0  0  0  0  0  0  0  0  0  0  0  0
   -6.6389    3.2927   -1.0394 O   0  0  0  0  0  0  0  0  0  0  0  0
   -5.3223    1.3389   -0.0651 O   0  0  0  0  0  0  0  0  0  0  0  0
   -4.9953    3.5956    0.8172 O   0  0  0  0  0  0  0  0  0  0  0  0
   -5.3167    4.5035    0.6832 H   0  0  0  0  0  0  0  0  0  0  0  0
  1 11  2  0  0  0  0
  2  1  1  0  0  0  0
  3  2  1  0  0  0  0
  4  5  2  0  0  0  0
  4  1  1  0  0  0  0
  5  6  1  0  0  0  0
  6  7  1  0  0  0  0
  6 10  2  0  0  0  0
  7  9  2  0  0  0  0
  8  7  2  0  0  0  0
 10 14  1  0  0  0  0
 11 10  1  0  0  0  0
 11 15  1  0  0  0  0
 13  5  1  0  0  0  0
 16 19  2  0  0  0  0
 16 20  1  0  0  0  0
 17 12  1  0  0  0  0
 17 16  1  0  0  0  0
 18 16  2  0  0  0  0
 21 20  1  0  0  0  0
M  RAD  3   2   2   3   3   4   2
M  END
