Coordinates from ORCA-job 4-NO2PhN2+~HSO4-_B3LYPG-6-31G_dp-CH-Scan-d09-49-n800
 OpenBabel11261919243D

 21 20  0  0  0  0  0  0  0  0999 V2000
   -1.8191   -0.3628   -0.1361 C   0  0  0  0  0  0  0  0  0  0  0  0
   -3.1294   -0.8479   -0.2036 N   0  0  0  0  0  0  0  0  0  0  0  0
   -4.1852   -1.1972   -0.2738 N   0  0  0  0  0  0  0  0  0  0  0  0
   -1.6690    0.9638   -0.5611 C   0  0  0  0  0  0  0  0  0  0  0  0
   -0.3092    1.3670   -0.4670 C   0  0  0  0  0  0  0  0  0  0  0  0
    0.6812    0.5097   -0.0099 C   0  0  0  0  0  0  0  0  0  0  0  0
    2.0846    0.9965    0.0603 N   0  0  0  0  0  0  0  0  0  0  0  0
    2.3041    2.1493   -0.2968 O   0  0  0  0  0  0  0  0  0  0  0  0
    2.9344    0.2090    0.4731 O   0  0  0  0  0  0  0  0  0  0  0  0
    0.4432   -0.8167    0.4007 C   0  0  0  0  0  0  0  0  0  0  0  0
   -0.8500   -1.2841    0.3405 C   0  0  0  0  0  0  0  0  0  0  0  0
   -3.2967    2.3002   -1.2198 H   0  0  0  0  0  0  0  0  0  0  0  0
   -0.0130    2.3700   -0.7561 H   0  0  0  0  0  0  0  0  0  0  0  0
    1.2644   -1.4292    0.7477 H   0  0  0  0  0  0  0  0  0  0  0  0
   -1.1082   -2.2946    0.6415 H   0  0  0  0  0  0  0  0  0  0  0  0
   -5.2752    2.6725   -0.4683 S   0  0  0  0  0  0  0  0  0  0  0  0
   -4.0635    2.8837   -1.4825 O   0  0  0  0  0  0  0  0  0  0  0  0
   -6.4385    3.2901   -1.0721 O   0  0  0  0  0  0  0  0  0  0  0  0
   -5.2785    1.3048    0.0234 O   0  0  0  0  0  0  0  0  0  0  0  0
   -4.8285    3.5739    0.8159 O   0  0  0  0  0  0  0  0  0  0  0  0
   -5.0947    4.4909    0.6330 H   0  0  0  0  0  0  0  0  0  0  0  0
  1 11  2  0  0  0  0
  2  1  1  0  0  0  0
  3  2  1  0  0  0  0
  4  5  2  0  0  0  0
  4  1  1  0  0  0  0
  5  6  1  0  0  0  0
  6  7  1  0  0  0  0
  6 10  2  0  0  0  0
  7  9  2  0  0  0  0
  8  7  2  0  0  0  0
 10 14  1  0  0  0  0
 11 10  1  0  0  0  0
 11 15  1  0  0  0  0
 13  5  1  0  0  0  0
 16 19  2  0  0  0  0
 16 20  1  0  0  0  0
 17 12  1  0  0  0  0
 17 16  1  0  0  0  0
 18 16  2  0  0  0  0
 21 20  1  0  0  0  0
M  RAD  3   2   2   3   3   4   2
M  END
