Coordinates from ORCA-job 4-NO2PhN2+~HSO4-_B3LYPG-6-31G_dp-CH-Scan-d09-49-n800
 OpenBabel11261919243D

 21 20  0  0  0  0  0  0  0  0999 V2000
   -1.6777   -0.4956   -0.7051 C   0  0  0  0  0  0  0  0  0  0  0  0
   -2.9060   -1.0329   -1.1312 N   0  0  0  0  0  0  0  0  0  0  0  0
   -3.8691   -1.4125   -1.5482 N   0  0  0  0  0  0  0  0  0  0  0  0
   -1.1861    0.4448   -1.6097 C   0  0  0  0  0  0  0  0  0  0  0  0
    0.0603    0.9550   -1.1357 C   0  0  0  0  0  0  0  0  0  0  0  0
    0.6228    0.5312    0.0594 C   0  0  0  0  0  0  0  0  0  0  0  0
    1.9177    1.1137    0.4999 N   0  0  0  0  0  0  0  0  0  0  0  0
    2.4339    1.9661   -0.2174 O   0  0  0  0  0  0  0  0  0  0  0  0
    2.3998    0.6976    1.5534 O   0  0  0  0  0  0  0  0  0  0  0  0
    0.0390   -0.4357    0.9082 C   0  0  0  0  0  0  0  0  0  0  0  0
   -1.1628   -0.9836    0.5236 C   0  0  0  0  0  0  0  0  0  0  0  0
   -4.6646    3.0006   -2.0535 H   0  0  0  0  0  0  0  0  0  0  0  0
    0.6038    1.7014   -1.7084 H   0  0  0  0  0  0  0  0  0  0  0  0
    0.5386   -0.7182    1.8248 H   0  0  0  0  0  0  0  0  0  0  0  0
   -1.6741   -1.7311    1.1234 H   0  0  0  0  0  0  0  0  0  0  0  0
   -5.0985    2.5419   -0.0032 S   0  0  0  0  0  0  0  0  0  0  0  0
   -5.2738    3.3656   -1.3882 O   0  0  0  0  0  0  0  0  0  0  0  0
   -6.2372    2.9048    0.8099 O   0  0  0  0  0  0  0  0  0  0  0  0
   -4.7263    1.1754   -0.3091 O   0  0  0  0  0  0  0  0  0  0  0  0
   -3.7635    3.2186    0.6235 O   0  0  0  0  0  0  0  0  0  0  0  0
   -4.0230    4.0419    1.0724 H   0  0  0  0  0  0  0  0  0  0  0  0
  1 11  2  0  0  0  0
  2  1  1  0  0  0  0
  3  2  1  0  0  0  0
  4  5  2  0  0  0  0
  4  1  1  0  0  0  0
  5  6  1  0  0  0  0
  6  7  1  0  0  0  0
  6 10  2  0  0  0  0
  7  9  2  0  0  0  0
  8  7  2  0  0  0  0
 10 14  1  0  0  0  0
 11 10  1  0  0  0  0
 11 15  1  0  0  0  0
 12 17  1  0  0  0  0
 13  5  1  0  0  0  0
 16 20  1  0  0  0  0
 16 18  2  0  0  0  0
 17 16  1  0  0  0  0
 19 16  2  0  0  0  0
 20 21  1  0  0  0  0
M  RAD  3   2   2   3   3   4   2
M  END
