Coordinates from ORCA-job 4-NO2PhN2+~HSO4-_B3LYPG-6-31G_dp-CH-Scan-d09-49-n800
 OpenBabel11261919243D

 21 20  0  0  0  0  0  0  0  0999 V2000
   -2.0241    0.0601   -0.3438 C   0  0  0  0  0  0  0  0  0  0  0  0
   -3.3753   -0.2067   -0.5352 N   0  0  0  0  0  0  0  0  0  0  0  0
   -4.4462   -0.4549   -0.7580 N   0  0  0  0  0  0  0  0  0  0  0  0
   -1.5239    1.3299   -0.6752 C   0  0  0  0  0  0  0  0  0  0  0  0
   -0.1570    1.5310   -0.5054 C   0  0  0  0  0  0  0  0  0  0  0  0
    0.6303    0.4970   -0.0052 C   0  0  0  0  0  0  0  0  0  0  0  0
    2.0821    0.7354    0.1811 N   0  0  0  0  0  0  0  0  0  0  0  0
    2.5128    1.8403   -0.1292 O   0  0  0  0  0  0  0  0  0  0  0  0
    2.7465   -0.1934    0.6320 O   0  0  0  0  0  0  0  0  0  0  0  0
    0.1213   -0.7580    0.3301 C   0  0  0  0  0  0  0  0  0  0  0  0
   -1.2344   -0.9904    0.1508 C   0  0  0  0  0  0  0  0  0  0  0  0
   -2.1140    2.0322   -1.0060 H   0  0  0  0  0  0  0  0  0  0  0  0
    0.2962    2.4850   -0.7436 H   0  0  0  0  0  0  0  0  0  0  0  0
    0.7843   -1.5217    0.7150 H   0  0  0  0  0  0  0  0  0  0  0  0
   -1.6786   -1.9492    0.3913 H   0  0  0  0  0  0  0  0  0  0  0  0
   -4.7535    2.5626   -0.3502 S   0  0  0  0  0  0  0  0  0  0  0  0
   -4.0569    3.2378   -1.4519 O   0  0  0  0  0  0  0  0  0  0  0  0
   -5.7093    1.4814   -0.7645 O   0  0  0  0  0  0  0  0  0  0  0  0
   -3.8522    2.0648    0.7272 O   0  0  0  0  0  0  0  0  0  0  0  0
   -5.6848    3.7413    0.3137 O   0  0  0  0  0  0  0  0  0  0  0  0
   -6.2101    3.3246    1.0157 H   0  0  0  0  0  0  0  0  0  0  0  0
  1 11  2  0  0  0  0
  2  1  1  0  0  0  0
  3  2  1  0  0  0  0
  4  5  2  0  0  0  0
  4  1  1  0  0  0  0
  5  6  1  0  0  0  0
  6  7  1  0  0  0  0
  6 10  2  0  0  0  0
  7  9  2  0  0  0  0
  8  7  2  0  0  0  0
 10 14  1  0  0  0  0
 11 10  1  0  0  0  0
 11 15  1  0  0  0  0
 12  4  1  0  0  0  0
 13  5  1  0  0  0  0
 16 20  1  0  0  0  0
 16 19  1  0  0  0  0
 17 16  2  0  0  0  0
 18 16  2  0  0  0  0
 20 21  1  0  0  0  0
M  RAD  3   2   2   3   3  19   2
M  END
