Coordinates from ORCA-job 4-NO2PhN2+~HSO4-_B3LYPG-6-31G_dp-CH-Scan-d09-49-n800
 OpenBabel11261919243D

 21 20  0  0  0  0  0  0  0  0999 V2000
   -1.9010   -0.3513   -0.1655 C   0  0  0  0  0  0  0  0  0  0  0  0
   -3.1986   -0.8629   -0.2436 N   0  0  0  0  0  0  0  0  0  0  0  0
   -4.2454   -1.2345   -0.3204 N   0  0  0  0  0  0  0  0  0  0  0  0
   -1.7613    0.9833   -0.5713 C   0  0  0  0  0  0  0  0  0  0  0  0
   -0.4133    1.4106   -0.4693 C   0  0  0  0  0  0  0  0  0  0  0  0
    0.5898    0.5641   -0.0188 C   0  0  0  0  0  0  0  0  0  0  0  0
    1.9842    1.0743    0.0622 N   0  0  0  0  0  0  0  0  0  0  0  0
    2.1840    2.2334   -0.2843 O   0  0  0  0  0  0  0  0  0  0  0  0
    2.8442    0.2969    0.4720 O   0  0  0  0  0  0  0  0  0  0  0  0
    0.3708   -0.7692    0.3741 C   0  0  0  0  0  0  0  0  0  0  0  0
   -0.9151   -1.2572    0.3022 C   0  0  0  0  0  0  0  0  0  0  0  0
   -3.0926    2.0699   -1.0940 H   0  0  0  0  0  0  0  0  0  0  0  0
   -0.1378    2.4228   -0.7456 H   0  0  0  0  0  0  0  0  0  0  0  0
    1.1997   -1.3732    0.7178 H   0  0  0  0  0  0  0  0  0  0  0  0
   -1.1571   -2.2752    0.5901 H   0  0  0  0  0  0  0  0  0  0  0  0
   -5.0993    2.6156   -0.4370 S   0  0  0  0  0  0  0  0  0  0  0  0
   -3.8571    2.7152   -1.4006 O   0  0  0  0  0  0  0  0  0  0  0  0
   -6.2408    3.2148   -1.1040 O   0  0  0  0  0  0  0  0  0  0  0  0
   -5.1653    1.2848    0.1550 O   0  0  0  0  0  0  0  0  0  0  0  0
   -4.6829    3.5929    0.8077 O   0  0  0  0  0  0  0  0  0  0  0  0
   -4.9516    4.4938    0.5620 H   0  0  0  0  0  0  0  0  0  0  0  0
  1 11  2  0  0  0  0
  2  1  1  0  0  0  0
  3  2  1  0  0  0  0
  4  5  2  0  0  0  0
  4  1  1  0  0  0  0
  5  6  1  0  0  0  0
  6  7  1  0  0  0  0
  6 10  2  0  0  0  0
  7  9  2  0  0  0  0
  8  7  2  0  0  0  0
 10 14  1  0  0  0  0
 11 10  1  0  0  0  0
 11 15  1  0  0  0  0
 13  5  1  0  0  0  0
 16 19  2  0  0  0  0
 16 20  1  0  0  0  0
 17 12  1  0  0  0  0
 17 16  1  0  0  0  0
 18 16  2  0  0  0  0
 21 20  1  0  0  0  0
M  RAD  3   2   2   3   3   4   2
M  END
