Coordinates from ORCA-job 4-NO2PhN2+~HSO4-_B3LYPG-6-31G_dp-CH-Scan-d09-49-n800
 OpenBabel11261919243D

 21 20  0  0  0  0  0  0  0  0999 V2000
   -1.6480   -0.5152   -1.0450 C   0  0  0  0  0  0  0  0  0  0  0  0
   -2.8465   -1.1290   -1.4639 N   0  0  0  0  0  0  0  0  0  0  0  0
   -3.7469   -1.6419   -1.8763 N   0  0  0  0  0  0  0  0  0  0  0  0
   -0.6404   -0.6513   -1.9968 C   0  0  0  0  0  0  0  0  0  0  0  0
    0.5394    0.0189   -1.5428 C   0  0  0  0  0  0  0  0  0  0  0  0
    0.5772    0.7103   -0.3424 C   0  0  0  0  0  0  0  0  0  0  0  0
    1.8205    1.4240    0.0507 N   0  0  0  0  0  0  0  0  0  0  0  0
    2.7763    1.3711   -0.7163 O   0  0  0  0  0  0  0  0  0  0  0  0
    1.8124    2.0253    1.1257 O   0  0  0  0  0  0  0  0  0  0  0  0
   -0.5048    0.7711    0.5677 C   0  0  0  0  0  0  0  0  0  0  0  0
   -1.6722    0.1264    0.2229 C   0  0  0  0  0  0  0  0  0  0  0  0
   -2.8771    2.7434    0.0457 H   0  0  0  0  0  0  0  0  0  0  0  0
    1.4438    0.0070   -2.1449 H   0  0  0  0  0  0  0  0  0  0  0  0
   -0.3820    1.2902    1.5091 H   0  0  0  0  0  0  0  0  0  0  0  0
   -2.5358    0.0941    0.8798 H   0  0  0  0  0  0  0  0  0  0  0  0
   -4.9659    2.2845    0.2226 S   0  0  0  0  0  0  0  0  0  0  0  0
   -3.6924    3.2751    0.0989 O   0  0  0  0  0  0  0  0  0  0  0  0
   -6.1290    3.0993   -0.0388 O   0  0  0  0  0  0  0  0  0  0  0  0
   -4.6715    1.0441   -0.4692 O   0  0  0  0  0  0  0  0  0  0  0  0
   -4.9301    1.8968    1.8015 O   0  0  0  0  0  0  0  0  0  0  0  0
   -5.3737    2.6047    2.3006 H   0  0  0  0  0  0  0  0  0  0  0  0
  1 11  2  0  0  0  0
  2  1  1  0  0  0  0
  3  2  1  0  0  0  0
  4  5  2  0  0  0  0
  4  1  1  0  0  0  0
  5  6  1  0  0  0  0
  6  7  1  0  0  0  0
  6 10  2  0  0  0  0
  7  9  2  0  0  0  0
  8  7  2  0  0  0  0
 10 14  1  0  0  0  0
 11 10  1  0  0  0  0
 11 15  1  0  0  0  0
 12 17  1  0  0  0  0
 13  5  1  0  0  0  0
 16 20  1  0  0  0  0
 17 16  1  0  0  0  0
 18 16  2  0  0  0  0
 19 16  2  0  0  0  0
 20 21  1  0  0  0  0
M  RAD  3   2   2   3   3   4   2
M  END
