Coordinates from ORCA-job 4-NO2PhN2+~HSO4-_B3LYPG-6-31G_dp-CH-Scan-d09-49-n800
 OpenBabel11261919243D

 21 20  0  0  0  0  0  0  0  0999 V2000
   -1.6776   -0.3746   -0.1040 C   0  0  0  0  0  0  0  0  0  0  0  0
   -3.0109   -0.8050   -0.1638 N   0  0  0  0  0  0  0  0  0  0  0  0
   -4.0822   -1.1068   -0.2346 N   0  0  0  0  0  0  0  0  0  0  0  0
   -1.4881    0.9297   -0.5729 C   0  0  0  0  0  0  0  0  0  0  0  0
   -0.1099    1.2816   -0.4872 C   0  0  0  0  0  0  0  0  0  0  0  0
    0.8469    0.4032   -0.0001 C   0  0  0  0  0  0  0  0  0  0  0  0
    2.2679    0.8376    0.0583 N   0  0  0  0  0  0  0  0  0  0  0  0
    2.5336    1.9697   -0.3333 O   0  0  0  0  0  0  0  0  0  0  0  0
    3.0881    0.0322    0.4972 O   0  0  0  0  0  0  0  0  0  0  0  0
    0.5596   -0.9011    0.4541 C   0  0  0  0  0  0  0  0  0  0  0  0
   -0.7496   -1.3213    0.4064 C   0  0  0  0  0  0  0  0  0  0  0  0
   -3.6092    2.7325   -1.4124 H   0  0  0  0  0  0  0  0  0  0  0  0
    0.2281    2.2622   -0.8075 H   0  0  0  0  0  0  0  0  0  0  0  0
    1.3577   -1.5312    0.8225 H   0  0  0  0  0  0  0  0  0  0  0  0
   -1.0468   -2.3113    0.7389 H   0  0  0  0  0  0  0  0  0  0  0  0
   -5.5483    2.7636   -0.5055 S   0  0  0  0  0  0  0  0  0  0  0  0
   -4.4369    3.2276   -1.5745 O   0  0  0  0  0  0  0  0  0  0  0  0
   -6.8087    3.2781   -0.9960 O   0  0  0  0  0  0  0  0  0  0  0  0
   -5.3357    1.3739   -0.1514 O   0  0  0  0  0  0  0  0  0  0  0  0
   -5.1239    3.6079    0.8194 O   0  0  0  0  0  0  0  0  0  0  0  0
   -5.5008    4.5004    0.7354 H   0  0  0  0  0  0  0  0  0  0  0  0
  1 11  2  0  0  0  0
  2  1  1  0  0  0  0
  3  2  1  0  0  0  0
  4  5  2  0  0  0  0
  4  1  1  0  0  0  0
  5  6  1  0  0  0  0
  6  7  1  0  0  0  0
  6 10  2  0  0  0  0
  7  9  2  0  0  0  0
  8  7  2  0  0  0  0
 10 14  1  0  0  0  0
 11 10  1  0  0  0  0
 11 15  1  0  0  0  0
 13  5  1  0  0  0  0
 16 19  2  0  0  0  0
 16 20  1  0  0  0  0
 17 12  1  0  0  0  0
 17 16  1  0  0  0  0
 18 16  2  0  0  0  0
 21 20  1  0  0  0  0
M  RAD  3   2   2   3   3   4   2
M  END
