Coordinates from ORCA-job 4-NO2PhN2+~HSO4-_B3LYPG-6-31G_dp-CH-Scan-d09-49-n800
 OpenBabel11261919243D

 21 20  0  0  0  0  0  0  0  0999 V2000
   -1.6544   -0.4799   -0.5609 C   0  0  0  0  0  0  0  0  0  0  0  0
   -2.9215   -0.9810   -0.9110 N   0  0  0  0  0  0  0  0  0  0  0  0
   -3.9250   -1.3259   -1.2565 N   0  0  0  0  0  0  0  0  0  0  0  0
   -1.2784    0.5932   -1.3688 C   0  0  0  0  0  0  0  0  0  0  0  0
    0.0143    1.0548   -0.9761 C   0  0  0  0  0  0  0  0  0  0  0  0
    0.7185    0.4736    0.0680 C   0  0  0  0  0  0  0  0  0  0  0  0
    2.0562    1.0115    0.4302 N   0  0  0  0  0  0  0  0  0  0  0  0
    2.4726    1.9786   -0.2013 O   0  0  0  0  0  0  0  0  0  0  0  0
    2.6657    0.4534    1.3424 O   0  0  0  0  0  0  0  0  0  0  0  0
    0.2449   -0.6185    0.8287 C   0  0  0  0  0  0  0  0  0  0  0  0
   -0.9922   -1.1302    0.5128 C   0  0  0  0  0  0  0  0  0  0  0  0
   -4.5248    2.9877   -2.0961 H   0  0  0  0  0  0  0  0  0  0  0  0
    0.4824    1.8877   -1.4930 H   0  0  0  0  0  0  0  0  0  0  0  0
    0.8532   -1.0210    1.6275 H   0  0  0  0  0  0  0  0  0  0  0  0
   -1.4232   -1.9695    1.0508 H   0  0  0  0  0  0  0  0  0  0  0  0
   -5.2953    2.6480   -0.1232 S   0  0  0  0  0  0  0  0  0  0  0  0
   -5.2362    3.3858   -1.5649 O   0  0  0  0  0  0  0  0  0  0  0  0
   -6.5452    3.0644    0.4721 O   0  0  0  0  0  0  0  0  0  0  0  0
   -4.8969    1.2643   -0.2791 O   0  0  0  0  0  0  0  0  0  0  0  0
   -4.0706    3.3611    0.6693 O   0  0  0  0  0  0  0  0  0  0  0  0
   -4.3909    4.2110    1.0178 H   0  0  0  0  0  0  0  0  0  0  0  0
  1 11  2  0  0  0  0
  2  1  1  0  0  0  0
  3  2  1  0  0  0  0
  4  5  2  0  0  0  0
  4  1  1  0  0  0  0
  5  6  1  0  0  0  0
  6  7  1  0  0  0  0
  6 10  2  0  0  0  0
  7  9  2  0  0  0  0
  8  7  2  0  0  0  0
 10 14  1  0  0  0  0
 11 10  1  0  0  0  0
 11 15  1  0  0  0  0
 12 17  1  0  0  0  0
 13  5  1  0  0  0  0
 16 18  2  0  0  0  0
 16 20  1  0  0  0  0
 17 16  1  0  0  0  0
 19 16  2  0  0  0  0
 20 21  1  0  0  0  0
M  RAD  3   2   2   3   3   4   2
M  END
