Coordinates from ORCA-job 4-NO2PhN2+~HSO4-_B3LYPG-6-31G_dp-CH-Scan-d09-49-n800
 OpenBabel11261919243D

 21 20  0  0  0  0  0  0  0  0999 V2000
   -1.7772   -0.3668   -0.1276 C   0  0  0  0  0  0  0  0  0  0  0  0
   -3.0943   -0.8365   -0.1939 N   0  0  0  0  0  0  0  0  0  0  0  0
   -4.1549   -1.1731   -0.2569 N   0  0  0  0  0  0  0  0  0  0  0  0
   -1.6164    0.9548   -0.5616 C   0  0  0  0  0  0  0  0  0  0  0  0
   -0.2511    1.3435   -0.4700 C   0  0  0  0  0  0  0  0  0  0  0  0
    0.7302    0.4789   -0.0074 C   0  0  0  0  0  0  0  0  0  0  0  0
    2.1389    0.9507    0.0595 N   0  0  0  0  0  0  0  0  0  0  0  0
    2.3706    2.1004   -0.2999 O   0  0  0  0  0  0  0  0  0  0  0  0
    2.9798    0.1586    0.4822 O   0  0  0  0  0  0  0  0  0  0  0  0
    0.4785   -0.8429    0.4125 C   0  0  0  0  0  0  0  0  0  0  0  0
   -0.8194   -1.2970    0.3556 C   0  0  0  0  0  0  0  0  0  0  0  0
   -3.3886    2.4184   -1.2760 H   0  0  0  0  0  0  0  0  0  0  0  0
    0.0570    2.3412   -0.7657 H   0  0  0  0  0  0  0  0  0  0  0  0
    1.2935   -1.4613    0.7633 H   0  0  0  0  0  0  0  0  0  0  0  0
   -1.0883   -2.3028    0.6632 H   0  0  0  0  0  0  0  0  0  0  0  0
   -5.3585    2.6995   -0.4765 S   0  0  0  0  0  0  0  0  0  0  0  0
   -4.1712    2.9750   -1.5132 O   0  0  0  0  0  0  0  0  0  0  0  0
   -6.5487    3.2914   -1.0511 O   0  0  0  0  0  0  0  0  0  0  0  0
   -5.3036    1.3236   -0.0157 O   0  0  0  0  0  0  0  0  0  0  0  0
   -4.9143    3.5903    0.8140 O   0  0  0  0  0  0  0  0  0  0  0  0
   -5.2087    4.5031    0.6541 H   0  0  0  0  0  0  0  0  0  0  0  0
  1 11  2  0  0  0  0
  2  1  1  0  0  0  0
  3  2  1  0  0  0  0
  4  5  2  0  0  0  0
  4  1  1  0  0  0  0
  5  6  1  0  0  0  0
  6  7  1  0  0  0  0
  6 10  2  0  0  0  0
  7  9  2  0  0  0  0
  8  7  2  0  0  0  0
 10 14  1  0  0  0  0
 11 10  1  0  0  0  0
 11 15  1  0  0  0  0
 13  5  1  0  0  0  0
 16 19  2  0  0  0  0
 16 20  1  0  0  0  0
 17 12  1  0  0  0  0
 17 16  1  0  0  0  0
 18 16  2  0  0  0  0
 21 20  1  0  0  0  0
M  RAD  3   2   2   3   3   4   2
M  END
