Coordinates from ORCA-job 4-NO2PhN2+~HSO4-_B3LYPG-6-31G_dp-CH-Scan-d09-49-n800
 OpenBabel11261919243D

 21 20  0  0  0  0  0  0  0  0999 V2000
   -1.5933   -0.4272   -0.2448 C   0  0  0  0  0  0  0  0  0  0  0  0
   -2.9250   -0.8505   -0.4037 N   0  0  0  0  0  0  0  0  0  0  0  0
   -3.9911   -1.1334   -0.5722 N   0  0  0  0  0  0  0  0  0  0  0  0
   -1.3477    0.8076   -0.8485 C   0  0  0  0  0  0  0  0  0  0  0  0
    0.0200    1.1685   -0.6568 C   0  0  0  0  0  0  0  0  0  0  0  0
    0.9066    0.3609    0.0399 C   0  0  0  0  0  0  0  0  0  0  0  0
    2.3165    0.8030    0.2049 N   0  0  0  0  0  0  0  0  0  0  0  0
    2.6366    1.8826   -0.2837 O   0  0  0  0  0  0  0  0  0  0  0  0
    3.0753    0.0600    0.8270 O   0  0  0  0  0  0  0  0  0  0  0  0
    0.5571   -0.8797    0.6169 C   0  0  0  0  0  0  0  0  0  0  0  0
   -0.7430   -1.3066    0.4768 C   0  0  0  0  0  0  0  0  0  0  0  0
   -4.1148    3.0529   -1.8757 H   0  0  0  0  0  0  0  0  0  0  0  0
    0.4040    2.1020   -1.0578 H   0  0  0  0  0  0  0  0  0  0  0  0
    1.3042   -1.4571    1.1445 H   0  0  0  0  0  0  0  0  0  0  0  0
   -1.0863   -2.2503    0.8904 H   0  0  0  0  0  0  0  0  0  0  0  0
   -5.6425    2.7974   -0.3937 S   0  0  0  0  0  0  0  0  0  0  0  0
   -4.9868    3.4558   -1.7190 O   0  0  0  0  0  0  0  0  0  0  0  0
   -7.0293    3.2073   -0.4044 O   0  0  0  0  0  0  0  0  0  0  0  0
   -5.2093    1.4206   -0.2764 O   0  0  0  0  0  0  0  0  0  0  0  0
   -4.8710    3.5935    0.7947 O   0  0  0  0  0  0  0  0  0  0  0  0
   -5.3268    4.4420    0.9305 H   0  0  0  0  0  0  0  0  0  0  0  0
  1 11  2  0  0  0  0
  2  1  1  0  0  0  0
  3  2  1  0  0  0  0
  4  5  2  0  0  0  0
  4  1  1  0  0  0  0
  5  6  1  0  0  0  0
  6  7  1  0  0  0  0
  6 10  2  0  0  0  0
  7  9  2  0  0  0  0
  8  7  2  0  0  0  0
 10 14  1  0  0  0  0
 11 10  1  0  0  0  0
 11 15  1  0  0  0  0
 12 17  1  0  0  0  0
 13  5  1  0  0  0  0
 16 19  2  0  0  0  0
 16 20  1  0  0  0  0
 17 16  1  0  0  0  0
 18 16  2  0  0  0  0
 20 21  1  0  0  0  0
M  RAD  3   2   2   3   3   4   2
M  END
