Coordinates from ORCA-job 4-NO2PhN2+~HSO4-_B3LYPG-6-31G_dp-CH-Scan-d09-49-n800
 OpenBabel11261919243D

 21 20  0  0  0  0  0  0  0  0999 V2000
   -1.9047   -0.3504   -0.1672 C   0  0  0  0  0  0  0  0  0  0  0  0
   -3.2018   -0.8627   -0.2460 N   0  0  0  0  0  0  0  0  0  0  0  0
   -4.2483   -1.2350   -0.3232 N   0  0  0  0  0  0  0  0  0  0  0  0
   -1.7646    0.9846   -0.5720 C   0  0  0  0  0  0  0  0  0  0  0  0
   -0.4172    1.4126   -0.4695 C   0  0  0  0  0  0  0  0  0  0  0  0
    0.5862    0.5661   -0.0193 C   0  0  0  0  0  0  0  0  0  0  0  0
    1.9803    1.0769    0.0623 N   0  0  0  0  0  0  0  0  0  0  0  0
    2.1796    2.2362   -0.2839 O   0  0  0  0  0  0  0  0  0  0  0  0
    2.8404    0.2997    0.4721 O   0  0  0  0  0  0  0  0  0  0  0  0
    0.3674   -0.7673    0.3727 C   0  0  0  0  0  0  0  0  0  0  0  0
   -0.9183   -1.2558    0.3001 C   0  0  0  0  0  0  0  0  0  0  0  0
   -3.0814    2.0594   -1.0873 H   0  0  0  0  0  0  0  0  0  0  0  0
   -0.1424    2.4251   -0.7451 H   0  0  0  0  0  0  0  0  0  0  0  0
    1.1964   -1.3713    0.7163 H   0  0  0  0  0  0  0  0  0  0  0  0
   -1.1600   -2.2740    0.5873 H   0  0  0  0  0  0  0  0  0  0  0  0
   -5.0909    2.6129   -0.4350 S   0  0  0  0  0  0  0  0  0  0  0  0
   -3.8478    2.7088   -1.3957 O   0  0  0  0  0  0  0  0  0  0  0  0
   -6.2333    3.2072   -1.1051 O   0  0  0  0  0  0  0  0  0  0  0  0
   -5.1569    1.2846    0.1636 O   0  0  0  0  0  0  0  0  0  0  0  0
   -4.6784    3.5964    0.8065 O   0  0  0  0  0  0  0  0  0  0  0  0
   -4.9511    4.4951    0.5572 H   0  0  0  0  0  0  0  0  0  0  0  0
  1 11  2  0  0  0  0
  2  1  1  0  0  0  0
  3  2  1  0  0  0  0
  4  5  2  0  0  0  0
  4  1  1  0  0  0  0
  5  6  1  0  0  0  0
  6  7  1  0  0  0  0
  6 10  2  0  0  0  0
  7  9  2  0  0  0  0
  8  7  2  0  0  0  0
 10 14  1  0  0  0  0
 11 10  1  0  0  0  0
 11 15  1  0  0  0  0
 13  5  1  0  0  0  0
 16 19  2  0  0  0  0
 16 20  1  0  0  0  0
 17 12  1  0  0  0  0
 17 16  1  0  0  0  0
 18 16  2  0  0  0  0
 21 20  1  0  0  0  0
M  RAD  3   2   2   3   3   4   2
M  END
