Coordinates from ORCA-job 4-NO2PhN2+~HSO4-_B3LYPG-6-31G_dp-CH-Scan-d09-49-n800
 OpenBabel11261919243D

 21 20  0  0  0  0  0  0  0  0999 V2000
   -1.6910   -0.5034   -0.6576 C   0  0  0  0  0  0  0  0  0  0  0  0
   -2.9277   -1.0426   -1.0551 N   0  0  0  0  0  0  0  0  0  0  0  0
   -3.9013   -1.4246   -1.4444 N   0  0  0  0  0  0  0  0  0  0  0  0
   -1.2544    0.4911   -1.5327 C   0  0  0  0  0  0  0  0  0  0  0  0
    0.0033    0.9985   -1.0867 C   0  0  0  0  0  0  0  0  0  0  0  0
    0.6230    0.5273    0.0613 C   0  0  0  0  0  0  0  0  0  0  0  0
    1.9255    1.1115    0.4760 N   0  0  0  0  0  0  0  0  0  0  0  0
    2.3847    2.0241   -0.2051 O   0  0  0  0  0  0  0  0  0  0  0  0
    2.4637    0.6465    1.4807 O   0  0  0  0  0  0  0  0  0  0  0  0
    0.0929   -0.4922    0.8831 C   0  0  0  0  0  0  0  0  0  0  0  0
   -1.1145   -1.0432    0.5212 C   0  0  0  0  0  0  0  0  0  0  0  0
   -4.5487    3.0056   -2.0711 H   0  0  0  0  0  0  0  0  0  0  0  0
    0.5105    1.7813   -1.6438 H   0  0  0  0  0  0  0  0  0  0  0  0
    0.6363   -0.8114    1.7622 H   0  0  0  0  0  0  0  0  0  0  0  0
   -1.5856   -1.8314    1.1015 H   0  0  0  0  0  0  0  0  0  0  0  0
   -5.1181    2.5708   -0.0492 S   0  0  0  0  0  0  0  0  0  0  0  0
   -5.1945    3.3838   -1.4491 O   0  0  0  0  0  0  0  0  0  0  0  0
   -6.2992    2.9589    0.6886 O   0  0  0  0  0  0  0  0  0  0  0  0
   -4.7491    1.1960   -0.3184 O   0  0  0  0  0  0  0  0  0  0  0  0
   -3.8142    3.2344    0.6535 O   0  0  0  0  0  0  0  0  0  0  0  0
   -4.0883    4.0679    1.0740 H   0  0  0  0  0  0  0  0  0  0  0  0
  1 11  2  0  0  0  0
  2  1  1  0  0  0  0
  3  2  1  0  0  0  0
  4  5  2  0  0  0  0
  4  1  1  0  0  0  0
  5  6  1  0  0  0  0
  6  7  1  0  0  0  0
  6 10  2  0  0  0  0
  7  9  2  0  0  0  0
  8  7  2  0  0  0  0
 10 14  1  0  0  0  0
 11 10  1  0  0  0  0
 11 15  1  0  0  0  0
 12 17  1  0  0  0  0
 13  5  1  0  0  0  0
 16 20  1  0  0  0  0
 16 18  2  0  0  0  0
 17 16  1  0  0  0  0
 19 16  2  0  0  0  0
 20 21  1  0  0  0  0
M  RAD  3   2   2   3   3   4   2
M  END
