Coordinates from ORCA-job 4-NO2PhN2+~HSO4-_B3LYPG-6-31G_dp-CH-Scan-d09-49-n800
 OpenBabel11261919243D

 21 20  0  0  0  0  0  0  0  0999 V2000
   -1.6919   -0.5030   -0.7826 C   0  0  0  0  0  0  0  0  0  0  0  0
   -2.8986   -1.0600   -1.2430 N   0  0  0  0  0  0  0  0  0  0  0  0
   -3.8393   -1.4644   -1.6870 N   0  0  0  0  0  0  0  0  0  0  0  0
   -1.1239    0.3455   -1.7321 C   0  0  0  0  0  0  0  0  0  0  0  0
    0.0953    0.8840   -1.2200 C   0  0  0  0  0  0  0  0  0  0  0  0
    0.5657    0.5671    0.0460 C   0  0  0  0  0  0  0  0  0  0  0  0
    1.8353    1.1759    0.5228 N   0  0  0  0  0  0  0  0  0  0  0  0
    2.3996    1.9750   -0.2192 O   0  0  0  0  0  0  0  0  0  0  0  0
    2.2444    0.8416    1.6348 O   0  0  0  0  0  0  0  0  0  0  0  0
   -0.0907   -0.3129    0.9354 C   0  0  0  0  0  0  0  0  0  0  0  0
   -1.2717   -0.8819    0.5184 C   0  0  0  0  0  0  0  0  0  0  0  0
   -4.6692    2.9962   -1.9930 H   0  0  0  0  0  0  0  0  0  0  0  0
    0.6901    1.5679   -1.8192 H   0  0  0  0  0  0  0  0  0  0  0  0
    0.3399   -0.5157    1.9064 H   0  0  0  0  0  0  0  0  0  0  0  0
   -1.8360   -1.5657    1.1460 H   0  0  0  0  0  0  0  0  0  0  0  0
   -4.9907    2.4760    0.0618 S   0  0  0  0  0  0  0  0  0  0  0  0
   -5.2316    3.3500   -1.2819 O   0  0  0  0  0  0  0  0  0  0  0  0
   -6.0748    2.8238    0.9519 O   0  0  0  0  0  0  0  0  0  0  0  0
   -4.6572    1.1171   -0.3148 O   0  0  0  0  0  0  0  0  0  0  0  0
   -3.6114    3.1111    0.6330 O   0  0  0  0  0  0  0  0  0  0  0  0
   -3.8303    3.9215    1.1251 H   0  0  0  0  0  0  0  0  0  0  0  0
  1 11  2  0  0  0  0
  2  1  1  0  0  0  0
  3  2  1  0  0  0  0
  4  5  2  0  0  0  0
  4  1  1  0  0  0  0
  5  6  1  0  0  0  0
  6  7  1  0  0  0  0
  6 10  2  0  0  0  0
  7  9  2  0  0  0  0
  8  7  2  0  0  0  0
 10 14  1  0  0  0  0
 11 10  1  0  0  0  0
 11 15  1  0  0  0  0
 12 17  1  0  0  0  0
 13  5  1  0  0  0  0
 16 20  1  0  0  0  0
 16 18  2  0  0  0  0
 17 16  1  0  0  0  0
 19 16  2  0  0  0  0
 20 21  1  0  0  0  0
M  RAD  3   2   2   3   3   4   2
M  END
