Coordinates from ORCA-job 4-NO2PhN2+~HSO4-_B3LYPG-6-31G_dp-CH-Scan-d09-49-n800
 OpenBabel11261919243D

 21 20  0  0  0  0  0  0  0  0999 V2000
   -1.7555   -0.3682   -0.1206 C   0  0  0  0  0  0  0  0  0  0  0  0
   -3.0761   -0.8295   -0.1847 N   0  0  0  0  0  0  0  0  0  0  0  0
   -4.1387   -1.1588   -0.2567 N   0  0  0  0  0  0  0  0  0  0  0  0
   -1.5885    0.9500   -0.5618 C   0  0  0  0  0  0  0  0  0  0  0  0
   -0.2203    1.3307   -0.4720 C   0  0  0  0  0  0  0  0  0  0  0  0
    0.7560    0.4627   -0.0052 C   0  0  0  0  0  0  0  0  0  0  0  0
    2.1675    0.9263    0.0592 N   0  0  0  0  0  0  0  0  0  0  0  0
    2.4072    2.0711   -0.3111 O   0  0  0  0  0  0  0  0  0  0  0  0
    3.0047    0.1297    0.4809 O   0  0  0  0  0  0  0  0  0  0  0  0
    0.4967   -0.8556    0.4218 C   0  0  0  0  0  0  0  0  0  0  0  0
   -0.8038   -1.3023    0.3676 C   0  0  0  0  0  0  0  0  0  0  0  0
   -3.4345    2.4839   -1.3034 H   0  0  0  0  0  0  0  0  0  0  0  0
    0.0943    2.3250   -0.7726 H   0  0  0  0  0  0  0  0  0  0  0  0
    1.3082   -1.4768    0.7758 H   0  0  0  0  0  0  0  0  0  0  0  0
   -1.0787   -2.3049    0.6805 H   0  0  0  0  0  0  0  0  0  0  0  0
   -5.4012    2.7138   -0.4832 S   0  0  0  0  0  0  0  0  0  0  0  0
   -4.2253    3.0288   -1.5256 O   0  0  0  0  0  0  0  0  0  0  0  0
   -6.6047    3.2923   -1.0431 O   0  0  0  0  0  0  0  0  0  0  0  0
   -5.3155    1.3327   -0.0449 O   0  0  0  0  0  0  0  0  0  0  0  0
   -4.9637    3.5940    0.8161 O   0  0  0  0  0  0  0  0  0  0  0  0
   -5.2747    4.5039    0.6719 H   0  0  0  0  0  0  0  0  0  0  0  0
  1 11  2  0  0  0  0
  2  1  1  0  0  0  0
  3  2  1  0  0  0  0
  4  5  2  0  0  0  0
  4  1  1  0  0  0  0
  5  6  1  0  0  0  0
  6  7  1  0  0  0  0
  6 10  2  0  0  0  0
  7  9  2  0  0  0  0
  8  7  2  0  0  0  0
 10 14  1  0  0  0  0
 11 10  1  0  0  0  0
 11 15  1  0  0  0  0
 13  5  1  0  0  0  0
 16 19  2  0  0  0  0
 16 20  1  0  0  0  0
 17 12  1  0  0  0  0
 17 16  1  0  0  0  0
 18 16  2  0  0  0  0
 21 20  1  0  0  0  0
M  RAD  3   2   2   3   3   4   2
M  END
