Coordinates from ORCA-job 4-NO2PhN2+~HSO4-_B3LYPG-6-31G_dp-CH-Scan-d09-49-n800
 OpenBabel11261919243D

 21 20  0  0  0  0  0  0  0  0999 V2000
   -1.5791   -0.3887   -0.1038 C   0  0  0  0  0  0  0  0  0  0  0  0
   -2.9272   -0.7795   -0.1703 N   0  0  0  0  0  0  0  0  0  0  0  0
   -4.0090   -1.0397   -0.2530 N   0  0  0  0  0  0  0  0  0  0  0  0
   -1.3588    0.8953   -0.6090 C   0  0  0  0  0  0  0  0  0  0  0  0
    0.0286    1.2156   -0.5141 C   0  0  0  0  0  0  0  0  0  0  0  0
    0.9570    0.3303    0.0133 C   0  0  0  0  0  0  0  0  0  0  0  0
    2.3869    0.7326    0.0815 N   0  0  0  0  0  0  0  0  0  0  0  0
    2.6850    1.8499   -0.3297 O   0  0  0  0  0  0  0  0  0  0  0  0
    3.1831   -0.0809    0.5494 O   0  0  0  0  0  0  0  0  0  0  0  0
    0.6331   -0.9544    0.5010 C   0  0  0  0  0  0  0  0  0  0  0  0
   -0.6847   -1.3451    0.4471 C   0  0  0  0  0  0  0  0  0  0  0  0
   -3.8836    3.0376   -1.5890 H   0  0  0  0  0  0  0  0  0  0  0  0
    0.3957    2.1777   -0.8587 H   0  0  0  0  0  0  0  0  0  0  0  0
    1.4116   -1.5915    0.8979 H   0  0  0  0  0  0  0  0  0  0  0  0
   -1.0106   -2.3181    0.8028 H   0  0  0  0  0  0  0  0  0  0  0  0
   -5.7216    2.8223   -0.5108 S   0  0  0  0  0  0  0  0  0  0  0  0
   -4.7647    3.4475   -1.6544 O   0  0  0  0  0  0  0  0  0  0  0  0
   -7.0658    3.2201   -0.8670 O   0  0  0  0  0  0  0  0  0  0  0  0
   -5.3288    1.4527   -0.2508 O   0  0  0  0  0  0  0  0  0  0  0  0
   -5.2623    3.6566    0.8069 O   0  0  0  0  0  0  0  0  0  0  0  0
   -5.7314    4.5086    0.7995 H   0  0  0  0  0  0  0  0  0  0  0  0
  1 11  2  0  0  0  0
  2  1  1  0  0  0  0
  3  2  1  0  0  0  0
  4  5  2  0  0  0  0
  4  1  1  0  0  0  0
  5  6  1  0  0  0  0
  6  7  1  0  0  0  0
  6 10  2  0  0  0  0
  7  9  2  0  0  0  0
  8  7  2  0  0  0  0
 10 14  1  0  0  0  0
 11 10  1  0  0  0  0
 11 15  1  0  0  0  0
 13  5  1  0  0  0  0
 16 19  2  0  0  0  0
 16 20  1  0  0  0  0
 17 12  1  0  0  0  0
 17 16  1  0  0  0  0
 18 16  2  0  0  0  0
 21 20  1  0  0  0  0
M  RAD  3   2   2   3   3   4   2
M  END
