Coordinates from ORCA-job 4-NO2PhN2+~HSO4-_B3LYPG-6-31G_dp-CH-Scan-d09-49-n800
 OpenBabel11261919243D

 21 20  0  0  0  0  0  0  0  0999 V2000
   -1.5995   -0.4267   -0.2414 C   0  0  0  0  0  0  0  0  0  0  0  0
   -2.9305   -0.8525   -0.3979 N   0  0  0  0  0  0  0  0  0  0  0  0
   -3.9955   -1.1378   -0.5689 N   0  0  0  0  0  0  0  0  0  0  0  0
   -1.3573    0.8101   -0.8426 C   0  0  0  0  0  0  0  0  0  0  0  0
    0.0103    1.1729   -0.6535 C   0  0  0  0  0  0  0  0  0  0  0  0
    0.9000    0.3649    0.0387 C   0  0  0  0  0  0  0  0  0  0  0  0
    2.3096    0.8090    0.2010 N   0  0  0  0  0  0  0  0  0  0  0  0
    2.6272    1.8892   -0.2878 O   0  0  0  0  0  0  0  0  0  0  0  0
    3.0719    0.0645    0.8172 O   0  0  0  0  0  0  0  0  0  0  0  0
    0.5541   -0.8776    0.6135 C   0  0  0  0  0  0  0  0  0  0  0  0
   -0.7457   -1.3063    0.4758 C   0  0  0  0  0  0  0  0  0  0  0  0
   -4.0854    3.0427   -1.8579 H   0  0  0  0  0  0  0  0  0  0  0  0
    0.3916    2.1081   -1.0529 H   0  0  0  0  0  0  0  0  0  0  0  0
    1.3036   -1.4551    1.1377 H   0  0  0  0  0  0  0  0  0  0  0  0
   -1.0863   -2.2515    0.8880 H   0  0  0  0  0  0  0  0  0  0  0  0
   -5.6339    2.7944   -0.3966 S   0  0  0  0  0  0  0  0  0  0  0  0
   -4.9598    3.4460   -1.7157 O   0  0  0  0  0  0  0  0  0  0  0  0
   -7.0178    3.2135   -0.4229 O   0  0  0  0  0  0  0  0  0  0  0  0
   -5.2116    1.4148   -0.2721 O   0  0  0  0  0  0  0  0  0  0  0  0
   -4.8700    3.5873    0.7989 O   0  0  0  0  0  0  0  0  0  0  0  0
   -5.3217    4.4390    0.9283 H   0  0  0  0  0  0  0  0  0  0  0  0
  1 11  2  0  0  0  0
  2  1  1  0  0  0  0
  3  2  1  0  0  0  0
  4  5  2  0  0  0  0
  4  1  1  0  0  0  0
  5  6  1  0  0  0  0
  6  7  1  0  0  0  0
  6 10  2  0  0  0  0
  7  9  2  0  0  0  0
  8  7  2  0  0  0  0
 10 14  1  0  0  0  0
 11 10  1  0  0  0  0
 11 15  1  0  0  0  0
 12 17  1  0  0  0  0
 13  5  1  0  0  0  0
 16 19  2  0  0  0  0
 16 20  1  0  0  0  0
 17 16  1  0  0  0  0
 18 16  2  0  0  0  0
 20 21  1  0  0  0  0
M  RAD  3   2   2   3   3   4   2
M  END
