Coordinates from ORCA-job 4-NO2PhN2+~HSO4-_B3LYPG-6-31G_dp-CH-Scan-d09-49-n800
 OpenBabel11261919243D

 21 20  0  0  0  0  0  0  0  0999 V2000
   -1.9417   -0.3124   -0.1835 C   0  0  0  0  0  0  0  0  0  0  0  0
   -3.2446   -0.8017   -0.2682 N   0  0  0  0  0  0  0  0  0  0  0  0
   -4.2972   -1.1538   -0.3427 N   0  0  0  0  0  0  0  0  0  0  0  0
   -1.7624    1.0293   -0.5468 C   0  0  0  0  0  0  0  0  0  0  0  0
   -0.4189    1.4450   -0.4471 C   0  0  0  0  0  0  0  0  0  0  0  0
    0.5741    0.5683   -0.0301 C   0  0  0  0  0  0  0  0  0  0  0  0
    1.9762    1.0559    0.0545 N   0  0  0  0  0  0  0  0  0  0  0  0
    2.1872    2.2216   -0.2599 O   0  0  0  0  0  0  0  0  0  0  0  0
    2.8260    0.2536    0.4346 O   0  0  0  0  0  0  0  0  0  0  0  0
    0.3344   -0.7698    0.3225 C   0  0  0  0  0  0  0  0  0  0  0  0
   -0.9609   -1.2379    0.2461 C   0  0  0  0  0  0  0  0  0  0  0  0
   -2.8625    1.9381   -0.9421 H   0  0  0  0  0  0  0  0  0  0  0  0
   -0.1413    2.4632   -0.6957 H   0  0  0  0  0  0  0  0  0  0  0  0
    1.1553   -1.3980    0.6417 H   0  0  0  0  0  0  0  0  0  0  0  0
   -1.2142   -2.2601    0.5062 H   0  0  0  0  0  0  0  0  0  0  0  0
   -4.9888    2.5743   -0.3899 S   0  0  0  0  0  0  0  0  0  0  0  0
   -3.7253    2.6868   -1.2717 O   0  0  0  0  0  0  0  0  0  0  0  0
   -6.1843    2.9212   -1.1480 O   0  0  0  0  0  0  0  0  0  0  0  0
   -4.9477    1.3290    0.3862 O   0  0  0  0  0  0  0  0  0  0  0  0
   -4.7867    3.7524    0.7382 O   0  0  0  0  0  0  0  0  0  0  0  0
   -5.2234    4.5439    0.3845 H   0  0  0  0  0  0  0  0  0  0  0  0
  1 11  2  0  0  0  0
  2  1  1  0  0  0  0
  3  2  1  0  0  0  0
  4  5  2  0  0  0  0
  4  1  1  0  0  0  0
  5  6  1  0  0  0  0
  6  7  1  0  0  0  0
  6 10  2  0  0  0  0
  7  9  2  0  0  0  0
  8  7  2  0  0  0  0
 10 14  1  0  0  0  0
 11 10  1  0  0  0  0
 11 15  1  0  0  0  0
 13  5  1  0  0  0  0
 16 19  2  0  0  0  0
 16 20  1  0  0  0  0
 17 12  1  0  0  0  0
 17 16  1  0  0  0  0
 18 16  2  0  0  0  0
 21 20  1  0  0  0  0
M  RAD  3   2   2   3   3   4   2
M  END
