Coordinates from ORCA-job 4-NO2PhN2+~HSO4-_B3LYPG-6-31G_dp-CH-Scan-d09-49-n800
 OpenBabel11261919243D

 21 20  0  0  0  0  0  0  0  0999 V2000
   -1.6450   -0.5146   -1.0466 C   0  0  0  0  0  0  0  0  0  0  0  0
   -2.8438   -1.1277   -1.4652 N   0  0  0  0  0  0  0  0  0  0  0  0
   -3.7447   -1.6401   -1.8774 N   0  0  0  0  0  0  0  0  0  0  0  0
   -0.6370   -0.6531   -1.9979 C   0  0  0  0  0  0  0  0  0  0  0  0
    0.5435    0.0158   -1.5435 C   0  0  0  0  0  0  0  0  0  0  0  0
    0.5819    0.7069   -0.3428 C   0  0  0  0  0  0  0  0  0  0  0  0
    1.8264    1.4183    0.0510 N   0  0  0  0  0  0  0  0  0  0  0  0
    2.7839    1.3603   -0.7135 O   0  0  0  0  0  0  0  0  0  0  0  0
    1.8174    2.0230    1.1241 O   0  0  0  0  0  0  0  0  0  0  0  0
   -0.5007    0.7704    0.5663 C   0  0  0  0  0  0  0  0  0  0  0  0
   -1.6691    0.1280    0.2208 C   0  0  0  0  0  0  0  0  0  0  0  0
   -2.8886    2.7591    0.0438 H   0  0  0  0  0  0  0  0  0  0  0  0
    1.4480    0.0030   -2.1454 H   0  0  0  0  0  0  0  0  0  0  0  0
   -0.3777    1.2901    1.5074 H   0  0  0  0  0  0  0  0  0  0  0  0
   -2.5337    0.0986    0.8766 H   0  0  0  0  0  0  0  0  0  0  0  0
   -4.9734    2.2849    0.2254 S   0  0  0  0  0  0  0  0  0  0  0  0
   -3.7075    3.2849    0.0986 O   0  0  0  0  0  0  0  0  0  0  0  0
   -6.1429    3.0905   -0.0358 O   0  0  0  0  0  0  0  0  0  0  0  0
   -4.6704    1.0457   -0.4651 O   0  0  0  0  0  0  0  0  0  0  0  0
   -4.9326    1.8998    1.8047 O   0  0  0  0  0  0  0  0  0  0  0  0
   -5.3808    2.6051    2.3034 H   0  0  0  0  0  0  0  0  0  0  0  0
  1 11  2  0  0  0  0
  2  1  1  0  0  0  0
  3  2  1  0  0  0  0
  4  5  2  0  0  0  0
  4  1  1  0  0  0  0
  5  6  1  0  0  0  0
  6  7  1  0  0  0  0
  6 10  2  0  0  0  0
  7  9  2  0  0  0  0
  8  7  2  0  0  0  0
 10 14  1  0  0  0  0
 11 10  1  0  0  0  0
 11 15  1  0  0  0  0
 12 17  1  0  0  0  0
 13  5  1  0  0  0  0
 16 20  1  0  0  0  0
 17 16  1  0  0  0  0
 18 16  2  0  0  0  0
 19 16  2  0  0  0  0
 20 21  1  0  0  0  0
M  RAD  3   2   2   3   3   4   2
M  END
