Coordinates from ORCA-job 4-NO2PhN2+~HSO4-_B3LYPG-6-31G_dp-CH-Scan-d09-49-n800
 OpenBabel11261919243D

 21 20  0  0  0  0  0  0  0  0999 V2000
   -2.0234    0.0602   -0.3458 C   0  0  0  0  0  0  0  0  0  0  0  0
   -3.3744   -0.2068   -0.5382 N   0  0  0  0  0  0  0  0  0  0  0  0
   -4.4450   -0.4552   -0.7619 N   0  0  0  0  0  0  0  0  0  0  0  0
   -1.5221    1.3288   -0.6796 C   0  0  0  0  0  0  0  0  0  0  0  0
   -0.1553    1.5300   -0.5092 C   0  0  0  0  0  0  0  0  0  0  0  0
    0.6309    0.4966   -0.0058 C   0  0  0  0  0  0  0  0  0  0  0  0
    2.0827    0.7347    0.1813 N   0  0  0  0  0  0  0  0  0  0  0  0
    2.5144    1.8384   -0.1318 O   0  0  0  0  0  0  0  0  0  0  0  0
    2.7462   -0.1932    0.6355 O   0  0  0  0  0  0  0  0  0  0  0  0
    0.1210   -0.7573    0.3322 C   0  0  0  0  0  0  0  0  0  0  0  0
   -1.2346   -0.9896    0.1522 C   0  0  0  0  0  0  0  0  0  0  0  0
   -2.1241    2.0450   -1.0188 H   0  0  0  0  0  0  0  0  0  0  0  0
    0.2988    2.4830   -0.7492 H   0  0  0  0  0  0  0  0  0  0  0  0
    0.7833   -1.5203    0.7196 H   0  0  0  0  0  0  0  0  0  0  0  0
   -1.6794   -1.9477    0.3946 H   0  0  0  0  0  0  0  0  0  0  0  0
   -4.7515    2.5603   -0.3433 S   0  0  0  0  0  0  0  0  0  0  0  0
   -4.0465    3.2347   -1.4408 O   0  0  0  0  0  0  0  0  0  0  0  0
   -5.7091    1.4837   -0.7644 O   0  0  0  0  0  0  0  0  0  0  0  0
   -3.8566    2.0581    0.7370 O   0  0  0  0  0  0  0  0  0  0  0  0
   -5.6821    3.7417    0.3167 O   0  0  0  0  0  0  0  0  0  0  0  0
   -6.2199    3.3240    1.0086 H   0  0  0  0  0  0  0  0  0  0  0  0
  1 11  2  0  0  0  0
  2  1  1  0  0  0  0
  3  2  1  0  0  0  0
  4  5  2  0  0  0  0
  4  1  1  0  0  0  0
  5  6  1  0  0  0  0
  6  7  1  0  0  0  0
  6 10  2  0  0  0  0
  7  9  2  0  0  0  0
  8  7  2  0  0  0  0
 10 14  1  0  0  0  0
 11 10  1  0  0  0  0
 11 15  1  0  0  0  0
 12  4  1  0  0  0  0
 13  5  1  0  0  0  0
 16 20  1  0  0  0  0
 16 19  1  0  0  0  0
 17 16  2  0  0  0  0
 18 16  2  0  0  0  0
 20 21  1  0  0  0  0
M  RAD  3   2   2   3   3  19   2
M  END
