Coordinates from ORCA-job 4-NO2PhN2+~HSO4-_B3LYPG-6-31G_dp-CH-Scan-d09-49-n800
 OpenBabel11261919243D

 21 20  0  0  0  0  0  0  0  0999 V2000
   -1.9264   -0.3297   -0.1751 C   0  0  0  0  0  0  0  0  0  0  0  0
   -3.2265   -0.8302   -0.2558 N   0  0  0  0  0  0  0  0  0  0  0  0
   -4.2755   -1.1943   -0.3305 N   0  0  0  0  0  0  0  0  0  0  0  0
   -1.7680    1.0129   -0.5465 C   0  0  0  0  0  0  0  0  0  0  0  0
   -0.4214    1.4321   -0.4470 C   0  0  0  0  0  0  0  0  0  0  0  0
    0.5783    0.5654   -0.0267 C   0  0  0  0  0  0  0  0  0  0  0  0
    1.9773    1.0626    0.0551 N   0  0  0  0  0  0  0  0  0  0  0  0
    2.1815    2.2290   -0.2620 O   0  0  0  0  0  0  0  0  0  0  0  0
    2.8335    0.2679    0.4378 O   0  0  0  0  0  0  0  0  0  0  0  0
    0.3500   -0.7742    0.3328 C   0  0  0  0  0  0  0  0  0  0  0  0
   -0.9413   -1.2506    0.2594 C   0  0  0  0  0  0  0  0  0  0  0  0
   -2.9525    1.9910   -0.9788 H   0  0  0  0  0  0  0  0  0  0  0  0
   -0.1455    2.4500   -0.7001 H   0  0  0  0  0  0  0  0  0  0  0  0
    1.1760   -1.3945    0.6539 H   0  0  0  0  0  0  0  0  0  0  0  0
   -1.1884   -2.2735    0.5237 H   0  0  0  0  0  0  0  0  0  0  0  0
   -5.0240    2.5900   -0.4019 S   0  0  0  0  0  0  0  0  0  0  0  0
   -3.7547    2.6910   -1.3006 O   0  0  0  0  0  0  0  0  0  0  0  0
   -6.1942    3.0140   -1.1552 O   0  0  0  0  0  0  0  0  0  0  0  0
   -5.0192    1.3203    0.3252 O   0  0  0  0  0  0  0  0  0  0  0  0
   -4.7632    3.7202    0.7572 O   0  0  0  0  0  0  0  0  0  0  0  0
   -5.1426    4.5497    0.4242 H   0  0  0  0  0  0  0  0  0  0  0  0
  1 11  2  0  0  0  0
  2  1  1  0  0  0  0
  3  2  1  0  0  0  0
  4  5  2  0  0  0  0
  4  1  1  0  0  0  0
  5  6  1  0  0  0  0
  6  7  1  0  0  0  0
  6 10  2  0  0  0  0
  7  9  2  0  0  0  0
  8  7  2  0  0  0  0
 10 14  1  0  0  0  0
 11 10  1  0  0  0  0
 11 15  1  0  0  0  0
 13  5  1  0  0  0  0
 16 19  2  0  0  0  0
 16 20  1  0  0  0  0
 17 12  1  0  0  0  0
 17 16  1  0  0  0  0
 18 16  2  0  0  0  0
 21 20  1  0  0  0  0
M  RAD  3   2   2   3   3   4   2
M  END
