Coordinates from ORCA-job 4-NO2PhN2+~HSO4-_B3LYPG-6-31G_dp-CH-Scan-d09-49-n800
 OpenBabel11261919243D

 21 20  0  0  0  0  0  0  0  0999 V2000
   -1.9199   -0.3385   -0.1739 C   0  0  0  0  0  0  0  0  0  0  0  0
   -3.2181   -0.8452   -0.2548 N   0  0  0  0  0  0  0  0  0  0  0  0
   -4.2655   -1.2141   -0.3312 N   0  0  0  0  0  0  0  0  0  0  0  0
   -1.7700    1.0019   -0.5571 C   0  0  0  0  0  0  0  0  0  0  0  0
   -0.4234    1.4254   -0.4555 C   0  0  0  0  0  0  0  0  0  0  0  0
    0.5785    0.5672   -0.0238 C   0  0  0  0  0  0  0  0  0  0  0  0
    1.9750    1.0710    0.0590 N   0  0  0  0  0  0  0  0  0  0  0  0
    2.1763    2.2352   -0.2682 O   0  0  0  0  0  0  0  0  0  0  0  0
    2.8333    0.2835    0.4521 O   0  0  0  0  0  0  0  0  0  0  0  0
    0.3551   -0.7707    0.3471 C   0  0  0  0  0  0  0  0  0  0  0  0
   -0.9335   -1.2530    0.2730 C   0  0  0  0  0  0  0  0  0  0  0  0
   -2.9996    2.0113   -1.0169 H   0  0  0  0  0  0  0  0  0  0  0  0
   -0.1488    2.4418   -0.7163 H   0  0  0  0  0  0  0  0  0  0  0  0
    1.1827   -1.3842    0.6769 H   0  0  0  0  0  0  0  0  0  0  0  0
   -1.1777   -2.2746    0.5453 H   0  0  0  0  0  0  0  0  0  0  0  0
   -5.0452    2.5970   -0.4124 S   0  0  0  0  0  0  0  0  0  0  0  0
   -3.7861    2.6888   -1.3363 O   0  0  0  0  0  0  0  0  0  0  0  0
   -6.2065    3.0864   -1.1368 O   0  0  0  0  0  0  0  0  0  0  0  0
   -5.0675    1.3058    0.2714 O   0  0  0  0  0  0  0  0  0  0  0  0
   -4.7229    3.6783    0.7757 O   0  0  0  0  0  0  0  0  0  0  0  0
   -5.0628    4.5358    0.4715 H   0  0  0  0  0  0  0  0  0  0  0  0
  1 11  2  0  0  0  0
  2  1  1  0  0  0  0
  3  2  1  0  0  0  0
  4  5  2  0  0  0  0
  4  1  1  0  0  0  0
  5  6  1  0  0  0  0
  6  7  1  0  0  0  0
  6 10  2  0  0  0  0
  7  9  2  0  0  0  0
  8  7  2  0  0  0  0
 10 14  1  0  0  0  0
 11 10  1  0  0  0  0
 11 15  1  0  0  0  0
 13  5  1  0  0  0  0
 16 19  2  0  0  0  0
 16 20  1  0  0  0  0
 17 12  1  0  0  0  0
 17 16  1  0  0  0  0
 18 16  2  0  0  0  0
 21 20  1  0  0  0  0
M  RAD  3   2   2   3   3   4   2
M  END
