Coordinates from ORCA-job 4-NO2PhN2+~HSO4-_B3LYPG-6-31G_dp-CH-Scan-d09-49-n800
 OpenBabel11261919243D

 21 20  0  0  0  0  0  0  0  0999 V2000
   -1.6739   -0.3751   -0.1036 C   0  0  0  0  0  0  0  0  0  0  0  0
   -3.0078   -0.8041   -0.1634 N   0  0  0  0  0  0  0  0  0  0  0  0
   -4.0795   -1.1044   -0.2345 N   0  0  0  0  0  0  0  0  0  0  0  0
   -1.4833    0.9285   -0.5739 C   0  0  0  0  0  0  0  0  0  0  0  0
   -0.1046    1.2790   -0.4882 C   0  0  0  0  0  0  0  0  0  0  0  0
    0.8512    0.4004    0.0002 C   0  0  0  0  0  0  0  0  0  0  0  0
    2.2726    0.8335    0.0586 N   0  0  0  0  0  0  0  0  0  0  0  0
    2.5395    1.9649   -0.3341 O   0  0  0  0  0  0  0  0  0  0  0  0
    3.0919    0.0277    0.4986 O   0  0  0  0  0  0  0  0  0  0  0  0
    0.5625   -0.9032    0.4559 C   0  0  0  0  0  0  0  0  0  0  0  0
   -0.7470   -1.3222    0.4083 C   0  0  0  0  0  0  0  0  0  0  0  0
   -3.6183    2.7449   -1.4183 H   0  0  0  0  0  0  0  0  0  0  0  0
    0.2345    2.2590   -0.8096 H   0  0  0  0  0  0  0  0  0  0  0  0
    1.3599   -1.5336    0.8252 H   0  0  0  0  0  0  0  0  0  0  0  0
   -1.0453   -2.3116    0.7418 H   0  0  0  0  0  0  0  0  0  0  0  0
   -5.5551    2.7660   -0.5062 S   0  0  0  0  0  0  0  0  0  0  0  0
   -4.4480    3.2372   -1.5771 O   0  0  0  0  0  0  0  0  0  0  0  0
   -6.8186    3.2765   -0.9926 O   0  0  0  0  0  0  0  0  0  0  0  0
   -5.3357    1.3764   -0.1562 O   0  0  0  0  0  0  0  0  0  0  0  0
   -5.1307    3.6090    0.8195 O   0  0  0  0  0  0  0  0  0  0  0  0
   -5.5111    4.5003    0.7383 H   0  0  0  0  0  0  0  0  0  0  0  0
  1 11  2  0  0  0  0
  2  1  1  0  0  0  0
  3  2  1  0  0  0  0
  4  5  2  0  0  0  0
  4  1  1  0  0  0  0
  5  6  1  0  0  0  0
  6  7  1  0  0  0  0
  6 10  2  0  0  0  0
  7  9  2  0  0  0  0
  8  7  2  0  0  0  0
 10 14  1  0  0  0  0
 11 10  1  0  0  0  0
 11 15  1  0  0  0  0
 13  5  1  0  0  0  0
 16 19  2  0  0  0  0
 16 20  1  0  0  0  0
 17 12  1  0  0  0  0
 17 16  1  0  0  0  0
 18 16  2  0  0  0  0
 21 20  1  0  0  0  0
M  RAD  3   2   2   3   3   4   2
M  END
