Coordinates from ORCA-job 4-NO2PhN2+~HSO4-_B3LYPG-6-31G_dp-CH-Scan-d09-49-n800
 OpenBabel11261919243D

 21 20  0  0  0  0  0  0  0  0999 V2000
   -1.6386   -0.3797   -0.0979 C   0  0  0  0  0  0  0  0  0  0  0  0
   -2.9782   -0.7941   -0.1567 N   0  0  0  0  0  0  0  0  0  0  0  0
   -4.0538   -1.0800   -0.2302 N   0  0  0  0  0  0  0  0  0  0  0  0
   -1.4381    0.9177   -0.5794 C   0  0  0  0  0  0  0  0  0  0  0  0
   -0.0556    1.2562   -0.4943 C   0  0  0  0  0  0  0  0  0  0  0  0
    0.8915    0.3735    0.0035 C   0  0  0  0  0  0  0  0  0  0  0  0
    2.3165    0.7944    0.0613 N   0  0  0  0  0  0  0  0  0  0  0  0
    2.5943    1.9210   -0.3381 O   0  0  0  0  0  0  0  0  0  0  0  0
    3.1285   -0.0153    0.5078 O   0  0  0  0  0  0  0  0  0  0  0  0
    0.5908   -0.9240    0.4698 C   0  0  0  0  0  0  0  0  0  0  0  0
   -0.7223   -1.3318    0.4237 C   0  0  0  0  0  0  0  0  0  0  0  0
   -3.7050    2.8558   -1.4707 H   0  0  0  0  0  0  0  0  0  0  0  0
    0.2932    2.2303   -0.8235 H   0  0  0  0  0  0  0  0  0  0  0  0
    1.3822   -1.5581    0.8455 H   0  0  0  0  0  0  0  0  0  0  0  0
   -1.0301   -2.3158    0.7648 H   0  0  0  0  0  0  0  0  0  0  0  0
   -5.6189    2.7884   -0.5133 S   0  0  0  0  0  0  0  0  0  0  0  0
   -4.5527    3.3214   -1.6007 O   0  0  0  0  0  0  0  0  0  0  0  0
   -6.9098    3.2608   -0.9642 O   0  0  0  0  0  0  0  0  0  0  0  0
   -5.3379    1.4025   -0.1961 O   0  0  0  0  0  0  0  0  0  0  0  0
   -5.1951    3.6234    0.8169 O   0  0  0  0  0  0  0  0  0  0  0  0
   -5.6078    4.5022    0.7605 H   0  0  0  0  0  0  0  0  0  0  0  0
  1 11  2  0  0  0  0
  2  1  1  0  0  0  0
  3  2  1  0  0  0  0
  4  5  2  0  0  0  0
  4  1  1  0  0  0  0
  5  6  1  0  0  0  0
  6  7  1  0  0  0  0
  6 10  2  0  0  0  0
  7  9  2  0  0  0  0
  8  7  2  0  0  0  0
 10 14  1  0  0  0  0
 11 10  1  0  0  0  0
 11 15  1  0  0  0  0
 13  5  1  0  0  0  0
 16 19  2  0  0  0  0
 16 20  1  0  0  0  0
 17 12  1  0  0  0  0
 17 16  1  0  0  0  0
 18 16  2  0  0  0  0
 21 20  1  0  0  0  0
M  RAD  3   2   2   3   3   4   2
M  END
