Coordinates from ORCA-job 4-NO2PhN2+~HSO4-_B3LYPG-6-31G_dp-CH-Scan-d09-49-n800
 OpenBabel11261919243D

 21 20  0  0  0  0  0  0  0  0999 V2000
   -1.8129   -0.3634   -0.1351 C   0  0  0  0  0  0  0  0  0  0  0  0
   -3.1240   -0.8465   -0.2026 N   0  0  0  0  0  0  0  0  0  0  0  0
   -4.1804   -1.1940   -0.2731 N   0  0  0  0  0  0  0  0  0  0  0  0
   -1.6612    0.9625   -0.5616 C   0  0  0  0  0  0  0  0  0  0  0  0
   -0.3006    1.3636   -0.4676 C   0  0  0  0  0  0  0  0  0  0  0  0
    0.6884    0.5053   -0.0093 C   0  0  0  0  0  0  0  0  0  0  0  0
    2.0926    0.9899    0.0607 N   0  0  0  0  0  0  0  0  0  0  0  0
    2.3141    2.1419   -0.2976 O   0  0  0  0  0  0  0  0  0  0  0  0
    2.9411    0.2015    0.4747 O   0  0  0  0  0  0  0  0  0  0  0  0
    0.4484   -0.8205    0.4028 C   0  0  0  0  0  0  0  0  0  0  0  0
   -0.8455   -1.2860    0.3428 C   0  0  0  0  0  0  0  0  0  0  0  0
   -3.3108    2.3176   -1.2288 H   0  0  0  0  0  0  0  0  0  0  0  0
   -0.0025    2.3657   -0.7576 H   0  0  0  0  0  0  0  0  0  0  0  0
    1.2686   -1.4337    0.7507 H   0  0  0  0  0  0  0  0  0  0  0  0
   -1.1053   -2.2957    0.6449 H   0  0  0  0  0  0  0  0  0  0  0  0
   -5.2878    2.6764   -0.4689 S   0  0  0  0  0  0  0  0  0  0  0  0
   -4.0799    2.8968   -1.4874 O   0  0  0  0  0  0  0  0  0  0  0  0
   -6.4553    3.2903   -1.0681 O   0  0  0  0  0  0  0  0  0  0  0  0
   -5.2822    1.3076    0.0185 O   0  0  0  0  0  0  0  0  0  0  0  0
   -4.8406    3.5767    0.8156 O   0  0  0  0  0  0  0  0  0  0  0  0
   -5.1107    4.4932    0.6358 H   0  0  0  0  0  0  0  0  0  0  0  0
  1 11  2  0  0  0  0
  2  1  1  0  0  0  0
  3  2  1  0  0  0  0
  4  5  2  0  0  0  0
  4  1  1  0  0  0  0
  5  6  1  0  0  0  0
  6  7  1  0  0  0  0
  6 10  2  0  0  0  0
  7  9  2  0  0  0  0
  8  7  2  0  0  0  0
 10 14  1  0  0  0  0
 11 10  1  0  0  0  0
 11 15  1  0  0  0  0
 13  5  1  0  0  0  0
 16 19  2  0  0  0  0
 16 20  1  0  0  0  0
 17 12  1  0  0  0  0
 17 16  1  0  0  0  0
 18 16  2  0  0  0  0
 21 20  1  0  0  0  0
M  RAD  3   2   2   3   3   4   2
M  END
