Coordinates from ORCA-job 4-NO2PhN2+~HSO4-_B3LYPG-6-31G_dp-CH-Scan-d09-49-n800
 OpenBabel11261919243D

 21 20  0  0  0  0  0  0  0  0999 V2000
   -1.5700   -0.3911   -0.1116 C   0  0  0  0  0  0  0  0  0  0  0  0
   -2.9189   -0.7789   -0.1841 N   0  0  0  0  0  0  0  0  0  0  0  0
   -4.0012   -1.0355   -0.2723 N   0  0  0  0  0  0  0  0  0  0  0  0
   -1.3448    0.8885   -0.6252 C   0  0  0  0  0  0  0  0  0  0  0  0
    0.0427    1.2070   -0.5238 C   0  0  0  0  0  0  0  0  0  0  0  0
    0.9661    0.3244    0.0166 C   0  0  0  0  0  0  0  0  0  0  0  0
    2.3962    0.7248    0.0914 N   0  0  0  0  0  0  0  0  0  0  0  0
    2.6990    1.8386   -0.3259 O   0  0  0  0  0  0  0  0  0  0  0  0
    3.1883   -0.0874    0.5686 O   0  0  0  0  0  0  0  0  0  0  0  0
    0.6368   -0.9562    0.5119 C   0  0  0  0  0  0  0  0  0  0  0  0
   -0.6813   -1.3452    0.4523 C   0  0  0  0  0  0  0  0  0  0  0  0
   -3.9249    3.0705   -1.6229 H   0  0  0  0  0  0  0  0  0  0  0  0
    0.4138    2.1659   -0.8734 H   0  0  0  0  0  0  0  0  0  0  0  0
    1.4117   -1.5915    0.9186 H   0  0  0  0  0  0  0  0  0  0  0  0
   -1.0112   -2.3149    0.8131 H   0  0  0  0  0  0  0  0  0  0  0  0
   -5.7353    2.8258   -0.5048 S   0  0  0  0  0  0  0  0  0  0  0  0
   -4.8130    3.4672   -1.6684 O   0  0  0  0  0  0  0  0  0  0  0  0
   -7.0919    3.2093   -0.8281 O   0  0  0  0  0  0  0  0  0  0  0  0
   -5.3201    1.4601   -0.2601 O   0  0  0  0  0  0  0  0  0  0  0  0
   -5.2547    3.6607    0.8048 O   0  0  0  0  0  0  0  0  0  0  0  0
   -5.7341    4.5069    0.8121 H   0  0  0  0  0  0  0  0  0  0  0  0
  1 11  2  0  0  0  0
  2  1  1  0  0  0  0
  3  2  1  0  0  0  0
  4  5  2  0  0  0  0
  4  1  1  0  0  0  0
  5  6  1  0  0  0  0
  6  7  1  0  0  0  0
  6 10  2  0  0  0  0
  7  9  2  0  0  0  0
  8  7  2  0  0  0  0
 10 14  1  0  0  0  0
 11 10  1  0  0  0  0
 11 15  1  0  0  0  0
 13  5  1  0  0  0  0
 16 19  2  0  0  0  0
 16 20  1  0  0  0  0
 17 12  1  0  0  0  0
 17 16  1  0  0  0  0
 18 16  2  0  0  0  0
 20 21  1  0  0  0  0
M  RAD  3   2   2   3   3   4   2
M  END
