Coordinates from ORCA-job 4-NO2PhN2+~HSO4-_B3LYPG-6-31G_dp-CH-Scan-d09-49-n800
 OpenBabel11261919243D

 21 20  0  0  0  0  0  0  0  0999 V2000
   -2.0188    0.0576   -0.3516 C   0  0  0  0  0  0  0  0  0  0  0  0
   -3.3694   -0.2118   -0.5478 N   0  0  0  0  0  0  0  0  0  0  0  0
   -4.4390   -0.4597   -0.7737 N   0  0  0  0  0  0  0  0  0  0  0  0
   -1.5171    1.3239   -0.6906 C   0  0  0  0  0  0  0  0  0  0  0  0
   -0.1510    1.5270   -0.5193 C   0  0  0  0  0  0  0  0  0  0  0  0
    0.6338    0.4955   -0.0094 C   0  0  0  0  0  0  0  0  0  0  0  0
    2.0859    0.7337    0.1783 N   0  0  0  0  0  0  0  0  0  0  0  0
    2.5191    1.8346   -0.1424 O   0  0  0  0  0  0  0  0  0  0  0  0
    2.7482   -0.1921    0.6386 O   0  0  0  0  0  0  0  0  0  0  0  0
    0.1235   -0.7568    0.3349 C   0  0  0  0  0  0  0  0  0  0  0  0
   -1.2316   -0.9904    0.1540 C   0  0  0  0  0  0  0  0  0  0  0  0
   -2.1870    2.1120   -1.0657 H   0  0  0  0  0  0  0  0  0  0  0  0
    0.3047    2.4783   -0.7632 H   0  0  0  0  0  0  0  0  0  0  0  0
    0.7853   -1.5175    0.7275 H   0  0  0  0  0  0  0  0  0  0  0  0
   -1.6768   -1.9473    0.4005 H   0  0  0  0  0  0  0  0  0  0  0  0
   -4.7398    2.5436   -0.3031 S   0  0  0  0  0  0  0  0  0  0  0  0
   -3.9769    3.1943   -1.3811 O   0  0  0  0  0  0  0  0  0  0  0  0
   -5.7124    1.4960   -0.7572 O   0  0  0  0  0  0  0  0  0  0  0  0
   -3.8917    2.0235    0.8034 O   0  0  0  0  0  0  0  0  0  0  0  0
   -5.6594    3.7560    0.3135 O   0  0  0  0  0  0  0  0  0  0  0  0
   -6.2762    3.3488    0.9431 H   0  0  0  0  0  0  0  0  0  0  0  0
  1 11  2  0  0  0  0
  2  1  1  0  0  0  0
  3  2  1  0  0  0  0
  4  5  2  0  0  0  0
  4  1  1  0  0  0  0
  5  6  1  0  0  0  0
  6  7  1  0  0  0  0
  6 10  2  0  0  0  0
  7  9  2  0  0  0  0
  8  7  2  0  0  0  0
 10 14  1  0  0  0  0
 11 10  1  0  0  0  0
 11 15  1  0  0  0  0
 12  4  1  0  0  0  0
 13  5  1  0  0  0  0
 16 20  1  0  0  0  0
 16 19  1  0  0  0  0
 17 16  2  0  0  0  0
 18 16  2  0  0  0  0
 20 21  1  0  0  0  0
M  RAD  3   2   2   3   3  19   2
M  END
