Coordinates from ORCA-job 4-NO2PhN2+~HSO4-_B3LYPG-6-31G_dp-CH-Scan-d09-49-n800
 OpenBabel11261919243D

 21 20  0  0  0  0  0  0  0  0999 V2000
   -1.6076   -0.4267   -0.2431 C   0  0  0  0  0  0  0  0  0  0  0  0
   -2.9371   -0.8564   -0.3996 N   0  0  0  0  0  0  0  0  0  0  0  0
   -4.0018   -1.1459   -0.5655 N   0  0  0  0  0  0  0  0  0  0  0  0
   -1.3683    0.8114   -0.8431 C   0  0  0  0  0  0  0  0  0  0  0  0
   -0.0017    1.1772   -0.6542 C   0  0  0  0  0  0  0  0  0  0  0  0
    0.8902    0.3710    0.0373 C   0  0  0  0  0  0  0  0  0  0  0  0
    2.2988    0.8185    0.1996 N   0  0  0  0  0  0  0  0  0  0  0  0
    2.6137    1.8995   -0.2892 O   0  0  0  0  0  0  0  0  0  0  0  0
    3.0627    0.0758    0.8158 O   0  0  0  0  0  0  0  0  0  0  0  0
    0.5475   -0.8728    0.6111 C   0  0  0  0  0  0  0  0  0  0  0  0
   -0.7513   -1.3046    0.4732 C   0  0  0  0  0  0  0  0  0  0  0  0
   -4.0567    3.0249   -1.8443 H   0  0  0  0  0  0  0  0  0  0  0  0
    0.3774    2.1136   -1.0531 H   0  0  0  0  0  0  0  0  0  0  0  0
    1.2984   -1.4489    1.1348 H   0  0  0  0  0  0  0  0  0  0  0  0
   -1.0894   -2.2511    0.8846 H   0  0  0  0  0  0  0  0  0  0  0  0
   -5.6195    2.7900   -0.3965 S   0  0  0  0  0  0  0  0  0  0  0  0
   -4.9300    3.4338   -1.7111 O   0  0  0  0  0  0  0  0  0  0  0  0
   -6.9997    3.2205   -0.4338 O   0  0  0  0  0  0  0  0  0  0  0  0
   -5.2099    1.4071   -0.2664 O   0  0  0  0  0  0  0  0  0  0  0  0
   -4.8583    3.5784    0.8038 O   0  0  0  0  0  0  0  0  0  0  0  0
   -5.3042    4.4338    0.9286 H   0  0  0  0  0  0  0  0  0  0  0  0
  1 11  2  0  0  0  0
  2  1  1  0  0  0  0
  3  2  1  0  0  0  0
  4  5  2  0  0  0  0
  4  1  1  0  0  0  0
  5  6  1  0  0  0  0
  6  7  1  0  0  0  0
  6 10  2  0  0  0  0
  7  9  2  0  0  0  0
  8  7  2  0  0  0  0
 10 14  1  0  0  0  0
 11 10  1  0  0  0  0
 11 15  1  0  0  0  0
 12 17  1  0  0  0  0
 13  5  1  0  0  0  0
 16 19  2  0  0  0  0
 16 20  1  0  0  0  0
 17 16  1  0  0  0  0
 18 16  2  0  0  0  0
 20 21  1  0  0  0  0
M  RAD  3   2   2   3   3   4   2
M  END
