Coordinates from ORCA-job 4-NO2PhN2+~HSO4-_B3LYPG-6-31G_dp-CH-Scan-d09-49-n800
 OpenBabel11261919243D

 21 20  0  0  0  0  0  0  0  0999 V2000
   -1.6048   -0.4266   -0.2424 C   0  0  0  0  0  0  0  0  0  0  0  0
   -2.9349   -0.8550   -0.3992 N   0  0  0  0  0  0  0  0  0  0  0  0
   -3.9997   -1.1436   -0.5656 N   0  0  0  0  0  0  0  0  0  0  0  0
   -1.3646    0.8113   -0.8421 C   0  0  0  0  0  0  0  0  0  0  0  0
    0.0023    1.1762   -0.6533 C   0  0  0  0  0  0  0  0  0  0  0  0
    0.8936    0.3690    0.0379 C   0  0  0  0  0  0  0  0  0  0  0  0
    2.3025    0.8153    0.2003 N   0  0  0  0  0  0  0  0  0  0  0  0
    2.6183    1.8962   -0.2883 O   0  0  0  0  0  0  0  0  0  0  0  0
    3.0661    0.0715    0.8155 O   0  0  0  0  0  0  0  0  0  0  0  0
    0.5499   -0.8747    0.6116 C   0  0  0  0  0  0  0  0  0  0  0  0
   -0.7492   -1.3054    0.4736 C   0  0  0  0  0  0  0  0  0  0  0  0
   -4.0665    3.0304   -1.8489 H   0  0  0  0  0  0  0  0  0  0  0  0
    0.3820    2.1124   -1.0520 H   0  0  0  0  0  0  0  0  0  0  0  0
    1.3004   -1.4514    1.1350 H   0  0  0  0  0  0  0  0  0  0  0  0
   -1.0881   -2.2517    0.8849 H   0  0  0  0  0  0  0  0  0  0  0  0
   -5.6247    2.7915   -0.3966 S   0  0  0  0  0  0  0  0  0  0  0  0
   -4.9403    3.4374   -1.7131 O   0  0  0  0  0  0  0  0  0  0  0  0
   -7.0060    3.2185   -0.4305 O   0  0  0  0  0  0  0  0  0  0  0  0
   -5.2111    1.4096   -0.2674 O   0  0  0  0  0  0  0  0  0  0  0  0
   -4.8622    3.5818    0.8017 O   0  0  0  0  0  0  0  0  0  0  0  0
   -5.3097    4.4363    0.9275 H   0  0  0  0  0  0  0  0  0  0  0  0
  1 11  2  0  0  0  0
  2  1  1  0  0  0  0
  3  2  1  0  0  0  0
  4  5  2  0  0  0  0
  4  1  1  0  0  0  0
  5  6  1  0  0  0  0
  6  7  1  0  0  0  0
  6 10  2  0  0  0  0
  7  9  2  0  0  0  0
  8  7  2  0  0  0  0
 10 14  1  0  0  0  0
 11 10  1  0  0  0  0
 11 15  1  0  0  0  0
 12 17  1  0  0  0  0
 13  5  1  0  0  0  0
 16 19  2  0  0  0  0
 16 20  1  0  0  0  0
 17 16  1  0  0  0  0
 18 16  2  0  0  0  0
 20 21  1  0  0  0  0
M  RAD  3   2   2   3   3   4   2
M  END
