Coordinates from ORCA-job 4-NO2PhN2+~HSO4-_B3LYPG-6-31G_dp-CH-Scan-d09-49-n800
 OpenBabel11261919243D

 21 20  0  0  0  0  0  0  0  0999 V2000
   -1.8013   -0.3643   -0.1324 C   0  0  0  0  0  0  0  0  0  0  0  0
   -3.1144   -0.8428   -0.1994 N   0  0  0  0  0  0  0  0  0  0  0  0
   -4.1721   -1.1867   -0.2701 N   0  0  0  0  0  0  0  0  0  0  0  0
   -1.6465    0.9601   -0.5614 C   0  0  0  0  0  0  0  0  0  0  0  0
   -0.2844    1.3572   -0.4680 C   0  0  0  0  0  0  0  0  0  0  0  0
    0.7021    0.4968   -0.0084 C   0  0  0  0  0  0  0  0  0  0  0  0
    2.1077    0.9772    0.0608 N   0  0  0  0  0  0  0  0  0  0  0  0
    2.3329    2.1279   -0.2995 O   0  0  0  0  0  0  0  0  0  0  0  0
    2.9540    0.1870    0.4760 O   0  0  0  0  0  0  0  0  0  0  0  0
    0.4582   -0.8277    0.4062 C   0  0  0  0  0  0  0  0  0  0  0  0
   -0.8371   -1.2894    0.3473 C   0  0  0  0  0  0  0  0  0  0  0  0
   -3.3362    2.3499   -1.2438 H   0  0  0  0  0  0  0  0  0  0  0  0
    0.0170    2.3580   -0.7598 H   0  0  0  0  0  0  0  0  0  0  0  0
    1.2767   -1.4426    0.7551 H   0  0  0  0  0  0  0  0  0  0  0  0
   -1.0999   -2.2979    0.6511 H   0  0  0  0  0  0  0  0  0  0  0  0
   -5.3110    2.6838   -0.4712 S   0  0  0  0  0  0  0  0  0  0  0  0
   -4.1094    2.9218   -1.4957 O   0  0  0  0  0  0  0  0  0  0  0  0
   -6.4857    3.2906   -1.0628 O   0  0  0  0  0  0  0  0  0  0  0  0
   -5.2895    1.3124    0.0080 O   0  0  0  0  0  0  0  0  0  0  0  0
   -4.8650    3.5812    0.8152 O   0  0  0  0  0  0  0  0  0  0  0  0
   -5.1428    4.4966    0.6415 H   0  0  0  0  0  0  0  0  0  0  0  0
  1 11  2  0  0  0  0
  2  1  1  0  0  0  0
  3  2  1  0  0  0  0
  4  5  2  0  0  0  0
  4  1  1  0  0  0  0
  5  6  1  0  0  0  0
  6  7  1  0  0  0  0
  6 10  2  0  0  0  0
  7  9  2  0  0  0  0
  8  7  2  0  0  0  0
 10 14  1  0  0  0  0
 11 10  1  0  0  0  0
 11 15  1  0  0  0  0
 13  5  1  0  0  0  0
 16 19  2  0  0  0  0
 16 20  1  0  0  0  0
 17 12  1  0  0  0  0
 17 16  1  0  0  0  0
 18 16  2  0  0  0  0
 21 20  1  0  0  0  0
M  RAD  3   2   2   3   3   4   2
M  END
