Coordinates from ORCA-job 4-NO2PhN2+~HSO4-_B3LYPG-6-31G_dp-CH-Scan-d09-49-n800
 OpenBabel11261919243D

 21 20  0  0  0  0  0  0  0  0999 V2000
   -1.7378   -0.3695   -0.1156 C   0  0  0  0  0  0  0  0  0  0  0  0
   -3.0614   -0.8238   -0.1780 N   0  0  0  0  0  0  0  0  0  0  0  0
   -4.1260   -1.1471   -0.2480 N   0  0  0  0  0  0  0  0  0  0  0  0
   -1.5660    0.9460   -0.5622 C   0  0  0  0  0  0  0  0  0  0  0  0
   -0.1954    1.3201   -0.4742 C   0  0  0  0  0  0  0  0  0  0  0  0
    0.7769    0.4492   -0.0044 C   0  0  0  0  0  0  0  0  0  0  0  0
    2.1907    0.9061    0.0576 N   0  0  0  0  0  0  0  0  0  0  0  0
    2.4360    2.0483   -0.3170 O   0  0  0  0  0  0  0  0  0  0  0  0
    3.0244    0.1072    0.4821 O   0  0  0  0  0  0  0  0  0  0  0  0
    0.5116   -0.8664    0.4280 C   0  0  0  0  0  0  0  0  0  0  0  0
   -0.7910   -1.3070    0.3761 C   0  0  0  0  0  0  0  0  0  0  0  0
   -3.4713    2.5377   -1.3247 H   0  0  0  0  0  0  0  0  0  0  0  0
    0.1243    2.3116   -0.7788 H   0  0  0  0  0  0  0  0  0  0  0  0
    1.3204   -1.4899    0.7840 H   0  0  0  0  0  0  0  0  0  0  0  0
   -1.0707   -2.3070    0.6929 H   0  0  0  0  0  0  0  0  0  0  0  0
   -5.4355    2.7257   -0.4896 S   0  0  0  0  0  0  0  0  0  0  0  0
   -4.2689    3.0734   -1.5350 O   0  0  0  0  0  0  0  0  0  0  0  0
   -6.6496    3.2925   -1.0377 O   0  0  0  0  0  0  0  0  0  0  0  0
   -5.3243    1.3411   -0.0702 O   0  0  0  0  0  0  0  0  0  0  0  0
   -5.0042    3.5968    0.8173 O   0  0  0  0  0  0  0  0  0  0  0  0
   -5.3289    4.5040    0.6861 H   0  0  0  0  0  0  0  0  0  0  0  0
  1 11  2  0  0  0  0
  2  1  1  0  0  0  0
  3  2  1  0  0  0  0
  4  5  2  0  0  0  0
  4  1  1  0  0  0  0
  5  6  1  0  0  0  0
  6  7  1  0  0  0  0
  6 10  2  0  0  0  0
  7  9  2  0  0  0  0
  8  7  2  0  0  0  0
 10 14  1  0  0  0  0
 11 10  1  0  0  0  0
 11 15  1  0  0  0  0
 13  5  1  0  0  0  0
 16 19  2  0  0  0  0
 16 20  1  0  0  0  0
 17 12  1  0  0  0  0
 17 16  1  0  0  0  0
 18 16  2  0  0  0  0
 21 20  1  0  0  0  0
M  RAD  3   2   2   3   3   4   2
M  END
