Coordinates from ORCA-job 4-NO2PhN2+~HSO4-_B3LYPG-6-31G_dp-CH-Scan-d09-49-n800
 OpenBabel11261919243D

 21 20  0  0  0  0  0  0  0  0999 V2000
   -1.7659   -0.3674   -0.1230 C   0  0  0  0  0  0  0  0  0  0  0  0
   -3.0849   -0.8327   -0.1876 N   0  0  0  0  0  0  0  0  0  0  0  0
   -4.1462   -1.1655   -0.2603 N   0  0  0  0  0  0  0  0  0  0  0  0
   -1.6018    0.9523   -0.5612 C   0  0  0  0  0  0  0  0  0  0  0  0
   -0.2349    1.3369   -0.4708 C   0  0  0  0  0  0  0  0  0  0  0  0
    0.7438    0.4705   -0.0059 C   0  0  0  0  0  0  0  0  0  0  0  0
    2.1539    0.9379    0.0594 N   0  0  0  0  0  0  0  0  0  0  0  0
    2.3902    2.0843   -0.3080 O   0  0  0  0  0  0  0  0  0  0  0  0
    2.9933    0.1428    0.4796 O   0  0  0  0  0  0  0  0  0  0  0  0
    0.4881   -0.8494    0.4180 C   0  0  0  0  0  0  0  0  0  0  0  0
   -0.8112   -1.2996    0.3629 C   0  0  0  0  0  0  0  0  0  0  0  0
   -3.4122    2.4532   -1.2898 H   0  0  0  0  0  0  0  0  0  0  0  0
    0.0765    2.3327   -0.7692 H   0  0  0  0  0  0  0  0  0  0  0  0
    1.3013   -1.4692    0.7705 H   0  0  0  0  0  0  0  0  0  0  0  0
   -1.0833   -2.3036    0.6736 H   0  0  0  0  0  0  0  0  0  0  0  0
   -5.3811    2.7071   -0.4803 S   0  0  0  0  0  0  0  0  0  0  0  0
   -4.1989    3.0039   -1.5192 O   0  0  0  0  0  0  0  0  0  0  0  0
   -6.5778    3.2923   -1.0478 O   0  0  0  0  0  0  0  0  0  0  0  0
   -5.3104    1.3280   -0.0321 O   0  0  0  0  0  0  0  0  0  0  0  0
   -4.9412    3.5915    0.8156 O   0  0  0  0  0  0  0  0  0  0  0  0
   -5.2441    4.5030    0.6643 H   0  0  0  0  0  0  0  0  0  0  0  0
  1 11  2  0  0  0  0
  2  1  1  0  0  0  0
  3  2  1  0  0  0  0
  4  5  2  0  0  0  0
  4  1  1  0  0  0  0
  5  6  1  0  0  0  0
  6  7  1  0  0  0  0
  6 10  2  0  0  0  0
  7  9  2  0  0  0  0
  8  7  2  0  0  0  0
 10 14  1  0  0  0  0
 11 10  1  0  0  0  0
 11 15  1  0  0  0  0
 13  5  1  0  0  0  0
 16 19  2  0  0  0  0
 16 20  1  0  0  0  0
 17 12  1  0  0  0  0
 17 16  1  0  0  0  0
 18 16  2  0  0  0  0
 21 20  1  0  0  0  0
M  RAD  3   2   2   3   3   4   2
M  END
