Coordinates from ORCA-job 4-NO2PhN2+~HSO4-_B3LYPG-6-31G_dp-CH-Scan-d09-49-n800
 OpenBabel11261919243D

 21 20  0  0  0  0  0  0  0  0999 V2000
   -2.0270    0.0590   -0.3393 C   0  0  0  0  0  0  0  0  0  0  0  0
   -3.3781   -0.2086   -0.5284 N   0  0  0  0  0  0  0  0  0  0  0  0
   -4.4502   -0.4564   -0.7475 N   0  0  0  0  0  0  0  0  0  0  0  0
   -1.5319    1.3338   -0.6588 C   0  0  0  0  0  0  0  0  0  0  0  0
   -0.1649    1.5365   -0.4898 C   0  0  0  0  0  0  0  0  0  0  0  0
    0.6270    0.4999   -0.0032 C   0  0  0  0  0  0  0  0  0  0  0  0
    2.0784    0.7409    0.1821 N   0  0  0  0  0  0  0  0  0  0  0  0
    2.5046    1.8509   -0.1158 O   0  0  0  0  0  0  0  0  0  0  0  0
    2.7472   -0.1917    0.6187 O   0  0  0  0  0  0  0  0  0  0  0  0
    0.1226   -0.7603    0.3197 C   0  0  0  0  0  0  0  0  0  0  0  0
   -1.2330   -0.9945    0.1417 C   0  0  0  0  0  0  0  0  0  0  0  0
   -2.0874    1.9942   -0.9630 H   0  0  0  0  0  0  0  0  0  0  0  0
    0.2841    2.4947   -0.7192 H   0  0  0  0  0  0  0  0  0  0  0  0
    0.7889   -1.5262    0.6943 H   0  0  0  0  0  0  0  0  0  0  0  0
   -1.6740   -1.9570    0.3732 H   0  0  0  0  0  0  0  0  0  0  0  0
   -4.7589    2.5619   -0.3676 S   0  0  0  0  0  0  0  0  0  0  0  0
   -4.0795    3.2217   -1.4880 O   0  0  0  0  0  0  0  0  0  0  0  0
   -5.7167    1.4713   -0.7528 O   0  0  0  0  0  0  0  0  0  0  0  0
   -3.8444    2.0817    0.7076 O   0  0  0  0  0  0  0  0  0  0  0  0
   -5.6831    3.7482    0.2931 O   0  0  0  0  0  0  0  0  0  0  0  0
   -6.1704    3.3489    1.0317 H   0  0  0  0  0  0  0  0  0  0  0  0
  1 11  2  0  0  0  0
  2  1  1  0  0  0  0
  3  2  1  0  0  0  0
  4  5  2  0  0  0  0
  4  1  1  0  0  0  0
  5  6  1  0  0  0  0
  6  7  1  0  0  0  0
  6 10  2  0  0  0  0
  7  9  2  0  0  0  0
  8  7  2  0  0  0  0
 10 14  1  0  0  0  0
 11 10  1  0  0  0  0
 11 15  1  0  0  0  0
 12  4  1  0  0  0  0
 13  5  1  0  0  0  0
 16 20  1  0  0  0  0
 16 19  1  0  0  0  0
 17 16  2  0  0  0  0
 18 16  2  0  0  0  0
 20 21  1  0  0  0  0
M  RAD  3   2   2   3   3  19   2
M  END
