Coordinates from ORCA-job 4-NO2PhN2+~HSO4-_B3LYPG-6-31G_dp-CH-Scan-d09-49-n800
 OpenBabel11261919243D

 21 20  0  0  0  0  0  0  0  0999 V2000
   -1.8991   -0.3518   -0.1647 C   0  0  0  0  0  0  0  0  0  0  0  0
   -3.1969   -0.8630   -0.2424 N   0  0  0  0  0  0  0  0  0  0  0  0
   -4.2440   -1.2341   -0.3191 N   0  0  0  0  0  0  0  0  0  0  0  0
   -1.7596    0.9828   -0.5710 C   0  0  0  0  0  0  0  0  0  0  0  0
   -0.4113    1.4096   -0.4692 C   0  0  0  0  0  0  0  0  0  0  0  0
    0.5917    0.5630   -0.0185 C   0  0  0  0  0  0  0  0  0  0  0  0
    1.9862    1.0729    0.0622 N   0  0  0  0  0  0  0  0  0  0  0  0
    2.1863    2.2319   -0.2846 O   0  0  0  0  0  0  0  0  0  0  0  0
    2.8461    0.2954    0.4720 O   0  0  0  0  0  0  0  0  0  0  0  0
    0.3725   -0.7701    0.3749 C   0  0  0  0  0  0  0  0  0  0  0  0
   -0.9135   -1.2579    0.3033 C   0  0  0  0  0  0  0  0  0  0  0  0
   -3.0982    2.0752   -1.0973 H   0  0  0  0  0  0  0  0  0  0  0  0
   -0.1354    2.4216   -0.7457 H   0  0  0  0  0  0  0  0  0  0  0  0
    1.2013   -1.3742    0.7186 H   0  0  0  0  0  0  0  0  0  0  0  0
   -1.1557   -2.2757    0.5914 H   0  0  0  0  0  0  0  0  0  0  0  0
   -5.1036    2.6170   -0.4380 S   0  0  0  0  0  0  0  0  0  0  0  0
   -3.8618    2.7185   -1.4031 O   0  0  0  0  0  0  0  0  0  0  0  0
   -6.2447    3.2182   -1.1034 O   0  0  0  0  0  0  0  0  0  0  0  0
   -5.1694    1.2850    0.1510 O   0  0  0  0  0  0  0  0  0  0  0  0
   -4.6853    3.5913    0.8082 O   0  0  0  0  0  0  0  0  0  0  0  0
   -4.9523    4.4932    0.5642 H   0  0  0  0  0  0  0  0  0  0  0  0
  1 11  2  0  0  0  0
  2  1  1  0  0  0  0
  3  2  1  0  0  0  0
  4  5  2  0  0  0  0
  4  1  1  0  0  0  0
  5  6  1  0  0  0  0
  6  7  1  0  0  0  0
  6 10  2  0  0  0  0
  7  9  2  0  0  0  0
  8  7  2  0  0  0  0
 10 14  1  0  0  0  0
 11 10  1  0  0  0  0
 11 15  1  0  0  0  0
 13  5  1  0  0  0  0
 16 19  2  0  0  0  0
 16 20  1  0  0  0  0
 17 12  1  0  0  0  0
 17 16  1  0  0  0  0
 18 16  2  0  0  0  0
 21 20  1  0  0  0  0
M  RAD  3   2   2   3   3   4   2
M  END
