Coordinates from ORCA-job 4-NO2PhN2+~HSO4-_B3LYPG-6-31G_dp-CH-Scan-d09-49-n800
 OpenBabel11261919243D

 21 20  0  0  0  0  0  0  0  0999 V2000
   -1.8314   -0.3614   -0.1374 C   0  0  0  0  0  0  0  0  0  0  0  0
   -3.1398   -0.8508   -0.2042 N   0  0  0  0  0  0  0  0  0  0  0  0
   -4.1944   -1.2036   -0.2735 N   0  0  0  0  0  0  0  0  0  0  0  0
   -1.6843    0.9666   -0.5593 C   0  0  0  0  0  0  0  0  0  0  0  0
   -0.3261    1.3738   -0.4657 C   0  0  0  0  0  0  0  0  0  0  0  0
    0.6673    0.5184   -0.0114 C   0  0  0  0  0  0  0  0  0  0  0  0
    2.0693    1.0092    0.0587 N   0  0  0  0  0  0  0  0  0  0  0  0
    2.2848    2.1634   -0.2961 O   0  0  0  0  0  0  0  0  0  0  0  0
    2.9216    0.2231    0.4689 O   0  0  0  0  0  0  0  0  0  0  0  0
    0.4333   -0.8095    0.3963 C   0  0  0  0  0  0  0  0  0  0  0  0
   -0.8588   -1.2804    0.3360 C   0  0  0  0  0  0  0  0  0  0  0  0
   -3.2676    2.2667   -1.2002 H   0  0  0  0  0  0  0  0  0  0  0  0
   -0.0335    2.3784   -0.7529 H   0  0  0  0  0  0  0  0  0  0  0  0
    1.2564   -1.4205    0.7412 H   0  0  0  0  0  0  0  0  0  0  0  0
   -1.1137   -2.2923    0.6349 H   0  0  0  0  0  0  0  0  0  0  0  0
   -5.2506    2.6651   -0.4683 S   0  0  0  0  0  0  0  0  0  0  0  0
   -4.0297    2.8591   -1.4715 O   0  0  0  0  0  0  0  0  0  0  0  0
   -6.4047    3.2906   -1.0823 O   0  0  0  0  0  0  0  0  0  0  0  0
   -5.2722    1.2996    0.0304 O   0  0  0  0  0  0  0  0  0  0  0  0
   -4.8071    3.5678    0.8169 O   0  0  0  0  0  0  0  0  0  0  0  0
   -5.0657    4.4858    0.6283 H   0  0  0  0  0  0  0  0  0  0  0  0
  1 11  2  0  0  0  0
  2  1  1  0  0  0  0
  3  2  1  0  0  0  0
  4  5  2  0  0  0  0
  4  1  1  0  0  0  0
  5  6  1  0  0  0  0
  6  7  1  0  0  0  0
  6 10  2  0  0  0  0
  7  9  2  0  0  0  0
  8  7  2  0  0  0  0
 10 14  1  0  0  0  0
 11 10  1  0  0  0  0
 11 15  1  0  0  0  0
 13  5  1  0  0  0  0
 16 19  2  0  0  0  0
 16 20  1  0  0  0  0
 17 12  1  0  0  0  0
 17 16  1  0  0  0  0
 18 16  2  0  0  0  0
 21 20  1  0  0  0  0
M  RAD  3   2   2   3   3   4   2
M  END
