Coordinates from ORCA-job 4-NO2PhN2+~HSO4-_B3LYPG-6-31G_dp-CH-Scan-d09-49-n800
 OpenBabel11261919243D

 21 20  0  0  0  0  0  0  0  0999 V2000
   -1.6302   -0.5068   -1.0523 C   0  0  0  0  0  0  0  0  0  0  0  0
   -2.8319   -1.1144   -1.4706 N   0  0  0  0  0  0  0  0  0  0  0  0
   -3.7362   -1.6206   -1.8833 N   0  0  0  0  0  0  0  0  0  0  0  0
   -0.6215   -0.6563   -2.0014 C   0  0  0  0  0  0  0  0  0  0  0  0
    0.5638    0.0024   -1.5452 C   0  0  0  0  0  0  0  0  0  0  0  0
    0.6081    0.6879   -0.3415 C   0  0  0  0  0  0  0  0  0  0  0  0
    1.8605    1.3826    0.0576 N   0  0  0  0  0  0  0  0  0  0  0  0
    2.8236    1.3033   -0.6980 O   0  0  0  0  0  0  0  0  0  0  0  0
    1.8519    1.9969    1.1252 O   0  0  0  0  0  0  0  0  0  0  0  0
   -0.4765    0.7648    0.5636 C   0  0  0  0  0  0  0  0  0  0  0  0
   -1.6517    0.1381    0.2136 C   0  0  0  0  0  0  0  0  0  0  0  0
   -2.9626    2.8524    0.0024 H   0  0  0  0  0  0  0  0  0  0  0  0
    1.4683   -0.0156   -2.1471 H   0  0  0  0  0  0  0  0  0  0  0  0
   -0.3518    1.2854    1.5039 H   0  0  0  0  0  0  0  0  0  0  0  0
   -2.5210    0.1243    0.8634 H   0  0  0  0  0  0  0  0  0  0  0  0
   -5.0171    2.2829    0.2379 S   0  0  0  0  0  0  0  0  0  0  0  0
   -3.8025    3.3407    0.0752 O   0  0  0  0  0  0  0  0  0  0  0  0
   -6.2286    3.0296   -0.0058 O   0  0  0  0  0  0  0  0  0  0  0  0
   -4.6685    1.0536   -0.4487 O   0  0  0  0  0  0  0  0  0  0  0  0
   -4.9259    1.9150    1.8188 O   0  0  0  0  0  0  0  0  0  0  0  0
   -5.3967    2.6028    2.3212 H   0  0  0  0  0  0  0  0  0  0  0  0
  1 11  2  0  0  0  0
  2  1  1  0  0  0  0
  3  2  1  0  0  0  0
  4  5  2  0  0  0  0
  4  1  1  0  0  0  0
  5  6  1  0  0  0  0
  6  7  1  0  0  0  0
  6 10  2  0  0  0  0
  7  9  2  0  0  0  0
  8  7  2  0  0  0  0
 10 14  1  0  0  0  0
 11 10  1  0  0  0  0
 11 15  1  0  0  0  0
 12 17  1  0  0  0  0
 13  5  1  0  0  0  0
 16 20  1  0  0  0  0
 17 16  1  0  0  0  0
 18 16  2  0  0  0  0
 19 16  2  0  0  0  0
 20 21  1  0  0  0  0
M  RAD  3   2   2   3   3   4   2
M  END
