Coordinates from ORCA-job 4-NO2PhN2+~HSO4-_B3LYPG-6-31G_dp-CH-Scan-d09-49-n800
 OpenBabel11261919243D

 21 20  0  0  0  0  0  0  0  0999 V2000
   -1.5928   -0.4269   -0.2461 C   0  0  0  0  0  0  0  0  0  0  0  0
   -2.9244   -0.8500   -0.4062 N   0  0  0  0  0  0  0  0  0  0  0  0
   -3.9908   -1.1328   -0.5726 N   0  0  0  0  0  0  0  0  0  0  0  0
   -1.3466    0.8079   -0.8495 C   0  0  0  0  0  0  0  0  0  0  0  0
    0.0210    1.1687   -0.6566 C   0  0  0  0  0  0  0  0  0  0  0  0
    0.9068    0.3610    0.0409 C   0  0  0  0  0  0  0  0  0  0  0  0
    2.3166    0.8031    0.2072 N   0  0  0  0  0  0  0  0  0  0  0  0
    2.6379    1.8815   -0.2832 O   0  0  0  0  0  0  0  0  0  0  0  0
    3.0754    0.0589    0.8280 O   0  0  0  0  0  0  0  0  0  0  0  0
    0.5568   -0.8796    0.6176 C   0  0  0  0  0  0  0  0  0  0  0  0
   -0.7432   -1.3064    0.4763 C   0  0  0  0  0  0  0  0  0  0  0  0
   -4.1200    3.0523   -1.8797 H   0  0  0  0  0  0  0  0  0  0  0  0
    0.4054    2.1022   -1.0572 H   0  0  0  0  0  0  0  0  0  0  0  0
    1.3035   -1.4570    1.1457 H   0  0  0  0  0  0  0  0  0  0  0  0
   -1.0870   -2.2501    0.8895 H   0  0  0  0  0  0  0  0  0  0  0  0
   -5.6428    2.7971   -0.3927 S   0  0  0  0  0  0  0  0  0  0  0  0
   -4.9914    3.4554   -1.7201 O   0  0  0  0  0  0  0  0  0  0  0  0
   -7.0300    3.2062   -0.3994 O   0  0  0  0  0  0  0  0  0  0  0  0
   -5.2083    1.4207   -0.2762 O   0  0  0  0  0  0  0  0  0  0  0  0
   -4.8685    3.5942    0.7931 O   0  0  0  0  0  0  0  0  0  0  0  0
   -5.3244    4.4424    0.9299 H   0  0  0  0  0  0  0  0  0  0  0  0
  1 11  2  0  0  0  0
  2  1  1  0  0  0  0
  3  2  1  0  0  0  0
  4  5  2  0  0  0  0
  4  1  1  0  0  0  0
  5  6  1  0  0  0  0
  6  7  1  0  0  0  0
  6 10  2  0  0  0  0
  7  9  2  0  0  0  0
  8  7  2  0  0  0  0
 10 14  1  0  0  0  0
 11 10  1  0  0  0  0
 11 15  1  0  0  0  0
 12 17  1  0  0  0  0
 13  5  1  0  0  0  0
 16 19  2  0  0  0  0
 16 20  1  0  0  0  0
 17 16  1  0  0  0  0
 18 16  2  0  0  0  0
 20 21  1  0  0  0  0
M  RAD  3   2   2   3   3   4   2
M  END
