Coordinates from ORCA-job 4-NO2PhN2+~HSO4-_B3LYPG-6-31G_dp-CH-Scan-d09-49-n800
 OpenBabel11261919243D

 21 20  0  0  0  0  0  0  0  0999 V2000
   -1.6700   -0.4792   -0.5332 C   0  0  0  0  0  0  0  0  0  0  0  0
   -2.9384   -0.9858   -0.8687 N   0  0  0  0  0  0  0  0  0  0  0  0
   -3.9454   -1.3373   -1.1968 N   0  0  0  0  0  0  0  0  0  0  0  0
   -1.3254    0.6260   -1.3118 C   0  0  0  0  0  0  0  0  0  0  0  0
   -0.0284    1.0883   -0.9352 C   0  0  0  0  0  0  0  0  0  0  0  0
    0.7082    0.4796    0.0700 C   0  0  0  0  0  0  0  0  0  0  0  0
    2.0487    1.0202    0.4174 N   0  0  0  0  0  0  0  0  0  0  0  0
    2.4452    2.0036   -0.2014 O   0  0  0  0  0  0  0  0  0  0  0  0
    2.6845    0.4413    1.2981 O   0  0  0  0  0  0  0  0  0  0  0  0
    0.2655   -0.6433    0.8037 C   0  0  0  0  0  0  0  0  0  0  0  0
   -0.9735   -1.1581    0.5005 C   0  0  0  0  0  0  0  0  0  0  0  0
   -4.4359    2.9561   -2.0913 H   0  0  0  0  0  0  0  0  0  0  0  0
    0.4175    1.9443   -1.4335 H   0  0  0  0  0  0  0  0  0  0  0  0
    0.8978   -1.0663    1.5729 H   0  0  0  0  0  0  0  0  0  0  0  0
   -1.3815   -2.0209    1.0189 H   0  0  0  0  0  0  0  0  0  0  0  0
   -5.2922    2.6575   -0.1455 S   0  0  0  0  0  0  0  0  0  0  0  0
   -5.1637    3.3698   -1.5953 O   0  0  0  0  0  0  0  0  0  0  0  0
   -6.5557    3.1086    0.3935 O   0  0  0  0  0  0  0  0  0  0  0  0
   -4.9170    1.2633   -0.2612 O   0  0  0  0  0  0  0  0  0  0  0  0
   -4.0849    3.3601    0.6824 O   0  0  0  0  0  0  0  0  0  0  0  0
   -4.4023    4.2212    1.0053 H   0  0  0  0  0  0  0  0  0  0  0  0
  1 11  2  0  0  0  0
  2  1  1  0  0  0  0
  3  2  1  0  0  0  0
  4  5  2  0  0  0  0
  4  1  1  0  0  0  0
  5  6  1  0  0  0  0
  6  7  1  0  0  0  0
  6 10  2  0  0  0  0
  7  9  2  0  0  0  0
  8  7  2  0  0  0  0
 10 14  1  0  0  0  0
 11 10  1  0  0  0  0
 11 15  1  0  0  0  0
 12 17  1  0  0  0  0
 13  5  1  0  0  0  0
 16 18  2  0  0  0  0
 16 20  1  0  0  0  0
 17 16  1  0  0  0  0
 19 16  2  0  0  0  0
 20 21  1  0  0  0  0
M  RAD  3   2   2   3   3   4   2
M  END
