Coordinates from ORCA-job 4-NO2PhN2+~HSO4-_B3LYPG-6-31G_dp-CH-Scan-d09-49-n800
 OpenBabel11261919243D

 21 20  0  0  0  0  0  0  0  0999 V2000
   -1.6231   -0.3822   -0.0969 C   0  0  0  0  0  0  0  0  0  0  0  0
   -2.9648   -0.7909   -0.1561 N   0  0  0  0  0  0  0  0  0  0  0  0
   -4.0426   -1.0695   -0.2284 N   0  0  0  0  0  0  0  0  0  0  0  0
   -1.4186    0.9129   -0.5824 C   0  0  0  0  0  0  0  0  0  0  0  0
   -0.0346    1.2465   -0.4968 C   0  0  0  0  0  0  0  0  0  0  0  0
    0.9087    0.3621    0.0052 C   0  0  0  0  0  0  0  0  0  0  0  0
    2.3351    0.7782    0.0638 N   0  0  0  0  0  0  0  0  0  0  0  0
    2.6171    1.9037   -0.3359 O   0  0  0  0  0  0  0  0  0  0  0  0
    3.1436   -0.0328    0.5144 O   0  0  0  0  0  0  0  0  0  0  0  0
    0.6030   -0.9331    0.4750 C   0  0  0  0  0  0  0  0  0  0  0  0
   -0.7113   -1.3366    0.4286 C   0  0  0  0  0  0  0  0  0  0  0  0
   -3.7453    2.8999   -1.4951 H   0  0  0  0  0  0  0  0  0  0  0  0
    0.3183    2.2182   -0.8287 H   0  0  0  0  0  0  0  0  0  0  0  0
    1.3919   -1.5687    0.8535 H   0  0  0  0  0  0  0  0  0  0  0  0
   -1.0230   -2.3185    0.7722 H   0  0  0  0  0  0  0  0  0  0  0  0
   -5.6468    2.7983   -0.5148 S   0  0  0  0  0  0  0  0  0  0  0  0
   -4.6011    3.3534   -1.6125 O   0  0  0  0  0  0  0  0  0  0  0  0
   -6.9497    3.2536   -0.9481 O   0  0  0  0  0  0  0  0  0  0  0  0
   -5.3394    1.4158   -0.2100 O   0  0  0  0  0  0  0  0  0  0  0  0
   -5.2191    3.6328    0.8142 O   0  0  0  0  0  0  0  0  0  0  0  0
   -5.6449    4.5060    0.7674 H   0  0  0  0  0  0  0  0  0  0  0  0
  1 11  2  0  0  0  0
  2  1  1  0  0  0  0
  3  2  1  0  0  0  0
  4  5  2  0  0  0  0
  4  1  1  0  0  0  0
  5  6  1  0  0  0  0
  6  7  1  0  0  0  0
  6 10  2  0  0  0  0
  7  9  2  0  0  0  0
  8  7  2  0  0  0  0
 10 14  1  0  0  0  0
 11 10  1  0  0  0  0
 11 15  1  0  0  0  0
 13  5  1  0  0  0  0
 16 19  2  0  0  0  0
 16 20  1  0  0  0  0
 17 12  1  0  0  0  0
 17 16  1  0  0  0  0
 18 16  2  0  0  0  0
 21 20  1  0  0  0  0
M  RAD  3   2   2   3   3   4   2
M  END
