Coordinates from ORCA-job 4-NO2PhN2+~HSO4-_B3LYPG-6-31G_dp-CH-Scan-d09-49-n800
 OpenBabel11261919243D

 21 20  0  0  0  0  0  0  0  0999 V2000
   -1.5747   -0.3894   -0.1063 C   0  0  0  0  0  0  0  0  0  0  0  0
   -2.9234   -0.7785   -0.1751 N   0  0  0  0  0  0  0  0  0  0  0  0
   -4.0055   -1.0371   -0.2595 N   0  0  0  0  0  0  0  0  0  0  0  0
   -1.3522    0.8929   -0.6145 C   0  0  0  0  0  0  0  0  0  0  0  0
    0.0352    1.2121   -0.5173 C   0  0  0  0  0  0  0  0  0  0  0  0
    0.9616    0.3274    0.0147 C   0  0  0  0  0  0  0  0  0  0  0  0
    2.3917    0.7286    0.0853 N   0  0  0  0  0  0  0  0  0  0  0  0
    2.6920    1.8443   -0.3286 O   0  0  0  0  0  0  0  0  0  0  0  0
    3.1863   -0.0851    0.5559 O   0  0  0  0  0  0  0  0  0  0  0  0
    0.6353   -0.9557    0.5051 C   0  0  0  0  0  0  0  0  0  0  0  0
   -0.6828   -1.3453    0.4492 C   0  0  0  0  0  0  0  0  0  0  0  0
   -3.9010    3.0519   -1.6021 H   0  0  0  0  0  0  0  0  0  0  0  0
    0.4041    2.1730   -0.8637 H   0  0  0  0  0  0  0  0  0  0  0  0
    1.4123   -1.5925    0.9054 H   0  0  0  0  0  0  0  0  0  0  0  0
   -1.0105   -2.3171    0.8066 H   0  0  0  0  0  0  0  0  0  0  0  0
   -5.7286    2.8241   -0.5089 S   0  0  0  0  0  0  0  0  0  0  0  0
   -4.7851    3.4563   -1.6600 O   0  0  0  0  0  0  0  0  0  0  0  0
   -7.0778    3.2155   -0.8528 O   0  0  0  0  0  0  0  0  0  0  0  0
   -5.3263    1.4562   -0.2544 O   0  0  0  0  0  0  0  0  0  0  0  0
   -5.2620    3.6589    0.8059 O   0  0  0  0  0  0  0  0  0  0  0  0
   -5.7356    4.5084    0.8040 H   0  0  0  0  0  0  0  0  0  0  0  0
  1 11  2  0  0  0  0
  2  1  1  0  0  0  0
  3  2  1  0  0  0  0
  4  5  2  0  0  0  0
  4  1  1  0  0  0  0
  5  6  1  0  0  0  0
  6  7  1  0  0  0  0
  6 10  2  0  0  0  0
  7  9  2  0  0  0  0
  8  7  2  0  0  0  0
 10 14  1  0  0  0  0
 11 10  1  0  0  0  0
 11 15  1  0  0  0  0
 13  5  1  0  0  0  0
 16 19  2  0  0  0  0
 16 20  1  0  0  0  0
 17 12  1  0  0  0  0
 17 16  1  0  0  0  0
 18 16  2  0  0  0  0
 21 20  1  0  0  0  0
M  RAD  3   2   2   3   3   4   2
M  END
