Coordinates from ORCA-job 4-NO2PhN2+~HSO4-_B3LYPG-6-31G_dp-CH-Scan-d09-49-n800
 OpenBabel11261919243D

 21 20  0  0  0  0  0  0  0  0999 V2000
   -1.7960   -0.3648   -0.1311 C   0  0  0  0  0  0  0  0  0  0  0  0
   -3.1100   -0.8412   -0.1978 N   0  0  0  0  0  0  0  0  0  0  0  0
   -4.1682   -1.1835   -0.2684 N   0  0  0  0  0  0  0  0  0  0  0  0
   -1.6399    0.9591   -0.5612 C   0  0  0  0  0  0  0  0  0  0  0  0
   -0.2770    1.3543   -0.4682 C   0  0  0  0  0  0  0  0  0  0  0  0
    0.7084    0.4929   -0.0081 C   0  0  0  0  0  0  0  0  0  0  0  0
    2.1147    0.9713    0.0605 N   0  0  0  0  0  0  0  0  0  0  0  0
    2.3414    2.1217   -0.3001 O   0  0  0  0  0  0  0  0  0  0  0  0
    2.9598    0.1805    0.4768 O   0  0  0  0  0  0  0  0  0  0  0  0
    0.4627   -0.8310    0.4077 C   0  0  0  0  0  0  0  0  0  0  0  0
   -0.8331   -1.2910    0.3493 C   0  0  0  0  0  0  0  0  0  0  0  0
   -3.3478    2.3646   -1.2505 H   0  0  0  0  0  0  0  0  0  0  0  0
    0.0259    2.3544   -0.7609 H   0  0  0  0  0  0  0  0  0  0  0  0
    1.2804   -1.4467    0.7569 H   0  0  0  0  0  0  0  0  0  0  0  0
   -1.0973   -2.2989    0.6540 H   0  0  0  0  0  0  0  0  0  0  0  0
   -5.3216    2.6872   -0.4723 S   0  0  0  0  0  0  0  0  0  0  0  0
   -4.1228    2.9332   -1.4994 O   0  0  0  0  0  0  0  0  0  0  0  0
   -6.4996    3.2907   -1.0605 O   0  0  0  0  0  0  0  0  0  0  0  0
   -5.2929    1.3148    0.0030 O   0  0  0  0  0  0  0  0  0  0  0  0
   -4.8763    3.5833    0.8149 O   0  0  0  0  0  0  0  0  0  0  0  0
   -5.1577    4.4982    0.6441 H   0  0  0  0  0  0  0  0  0  0  0  0
  1 11  2  0  0  0  0
  2  1  1  0  0  0  0
  3  2  1  0  0  0  0
  4  5  2  0  0  0  0
  4  1  1  0  0  0  0
  5  6  1  0  0  0  0
  6  7  1  0  0  0  0
  6 10  2  0  0  0  0
  7  9  2  0  0  0  0
  8  7  2  0  0  0  0
 10 14  1  0  0  0  0
 11 10  1  0  0  0  0
 11 15  1  0  0  0  0
 13  5  1  0  0  0  0
 16 19  2  0  0  0  0
 16 20  1  0  0  0  0
 17 12  1  0  0  0  0
 17 16  1  0  0  0  0
 18 16  2  0  0  0  0
 21 20  1  0  0  0  0
M  RAD  3   2   2   3   3   4   2
M  END
