Coordinates from ORCA-job 4-NO2PhN2+~HSO4-_B3LYPG-6-31G_dp-CH-Scan-d09-49-n800
 OpenBabel11261919243D

 21 20  0  0  0  0  0  0  0  0999 V2000
   -1.6206   -0.3818   -0.0961 C   0  0  0  0  0  0  0  0  0  0  0  0
   -2.9629   -0.7887   -0.1551 N   0  0  0  0  0  0  0  0  0  0  0  0
   -4.0408   -1.0665   -0.2284 N   0  0  0  0  0  0  0  0  0  0  0  0
   -1.4149    0.9125   -0.5828 C   0  0  0  0  0  0  0  0  0  0  0  0
   -0.0306    1.2449   -0.4971 C   0  0  0  0  0  0  0  0  0  0  0  0
    0.9118    0.3601    0.0058 C   0  0  0  0  0  0  0  0  0  0  0  0
    2.3386    0.7749    0.0642 N   0  0  0  0  0  0  0  0  0  0  0  0
    2.6220    1.8992   -0.3380 O   0  0  0  0  0  0  0  0  0  0  0  0
    3.1467   -0.0372    0.5136 O   0  0  0  0  0  0  0  0  0  0  0  0
    0.6048   -0.9345    0.4767 C   0  0  0  0  0  0  0  0  0  0  0  0
   -0.7099   -1.3367    0.4304 C   0  0  0  0  0  0  0  0  0  0  0  0
   -3.7520    2.9099   -1.4989 H   0  0  0  0  0  0  0  0  0  0  0  0
    0.3233    2.2160   -0.8299 H   0  0  0  0  0  0  0  0  0  0  0  0
    1.3931   -1.5705    0.8558 H   0  0  0  0  0  0  0  0  0  0  0  0
   -1.0227   -2.3179    0.7747 H   0  0  0  0  0  0  0  0  0  0  0  0
   -5.6510    2.7994   -0.5158 S   0  0  0  0  0  0  0  0  0  0  0  0
   -4.6089    3.3609   -1.6138 O   0  0  0  0  0  0  0  0  0  0  0  0
   -6.9560    3.2511   -0.9466 O   0  0  0  0  0  0  0  0  0  0  0  0
   -5.3383    1.4172   -0.2143 O   0  0  0  0  0  0  0  0  0  0  0  0
   -5.2246    3.6326    0.8143 O   0  0  0  0  0  0  0  0  0  0  0  0
   -5.6540    4.5041    0.7702 H   0  0  0  0  0  0  0  0  0  0  0  0
  1 11  2  0  0  0  0
  2  1  1  0  0  0  0
  3  2  1  0  0  0  0
  4  5  2  0  0  0  0
  4  1  1  0  0  0  0
  5  6  1  0  0  0  0
  6  7  1  0  0  0  0
  6 10  2  0  0  0  0
  7  9  2  0  0  0  0
  8  7  2  0  0  0  0
 10 14  1  0  0  0  0
 11 10  1  0  0  0  0
 11 15  1  0  0  0  0
 13  5  1  0  0  0  0
 16 19  2  0  0  0  0
 16 20  1  0  0  0  0
 17 12  1  0  0  0  0
 17 16  1  0  0  0  0
 18 16  2  0  0  0  0
 21 20  1  0  0  0  0
M  RAD  3   2   2   3   3   4   2
M  END
