Coordinates from ORCA-job 4-NO2PhN2+~HSO4-_B3LYPG-6-31G_dp-CH-Scan-d09-49-n800
 OpenBabel11261919243D

 21 20  0  0  0  0  0  0  0  0999 V2000
   -1.8589   -0.3584   -0.1471 C   0  0  0  0  0  0  0  0  0  0  0  0
   -3.1628   -0.8578   -0.2176 N   0  0  0  0  0  0  0  0  0  0  0  0
   -4.2144   -1.2182   -0.2895 N   0  0  0  0  0  0  0  0  0  0  0  0
   -1.7171    0.9726   -0.5625 C   0  0  0  0  0  0  0  0  0  0  0  0
   -0.3628    1.3886   -0.4658 C   0  0  0  0  0  0  0  0  0  0  0  0
    0.6355    0.5375   -0.0139 C   0  0  0  0  0  0  0  0  0  0  0  0
    2.0341    1.0373    0.0600 N   0  0  0  0  0  0  0  0  0  0  0  0
    2.2422    2.1941   -0.2904 O   0  0  0  0  0  0  0  0  0  0  0  0
    2.8906    0.2552    0.4688 O   0  0  0  0  0  0  0  0  0  0  0  0
    0.4091   -0.7930    0.3876 C   0  0  0  0  0  0  0  0  0  0  0  0
   -0.8801   -1.2718    0.3233 C   0  0  0  0  0  0  0  0  0  0  0  0
   -3.2033    2.1890   -1.1603 H   0  0  0  0  0  0  0  0  0  0  0  0
   -0.0775    2.3964   -0.7486 H   0  0  0  0  0  0  0  0  0  0  0  0
    1.2353   -1.4006    0.7312 H   0  0  0  0  0  0  0  0  0  0  0  0
   -1.1290   -2.2865    0.6175 H   0  0  0  0  0  0  0  0  0  0  0  0
   -5.1925    2.6459   -0.4576 S   0  0  0  0  0  0  0  0  0  0  0  0
   -3.9616    2.7984   -1.4472 O   0  0  0  0  0  0  0  0  0  0  0  0
   -6.3363    3.2711   -1.0921 O   0  0  0  0  0  0  0  0  0  0  0  0
   -5.2396    1.2920    0.0736 O   0  0  0  0  0  0  0  0  0  0  0  0
   -4.7528    3.5712    0.8146 O   0  0  0  0  0  0  0  0  0  0  0  0
   -5.0048    4.4862    0.6047 H   0  0  0  0  0  0  0  0  0  0  0  0
  1 11  2  0  0  0  0
  2  1  1  0  0  0  0
  3  2  1  0  0  0  0
  4  5  2  0  0  0  0
  4  1  1  0  0  0  0
  5  6  1  0  0  0  0
  6  7  1  0  0  0  0
  6 10  2  0  0  0  0
  7  9  2  0  0  0  0
  8  7  2  0  0  0  0
 10 14  1  0  0  0  0
 11 10  1  0  0  0  0
 11 15  1  0  0  0  0
 13  5  1  0  0  0  0
 16 19  2  0  0  0  0
 16 20  1  0  0  0  0
 17 12  1  0  0  0  0
 17 16  1  0  0  0  0
 18 16  2  0  0  0  0
 21 20  1  0  0  0  0
M  RAD  3   2   2   3   3   4   2
M  END
