Coordinates from ORCA-job 4-NO2PhN2+~HSO4-_B3LYPG-6-31G_dp-CH-Scan-d09-49-n800
 OpenBabel11261919243D

 21 20  0  0  0  0  0  0  0  0999 V2000
   -1.6290   -0.3809   -0.0969 C   0  0  0  0  0  0  0  0  0  0  0  0
   -2.9701   -0.7914   -0.1557 N   0  0  0  0  0  0  0  0  0  0  0  0
   -4.0470   -1.0730   -0.2284 N   0  0  0  0  0  0  0  0  0  0  0  0
   -1.4259    0.9150   -0.5808 C   0  0  0  0  0  0  0  0  0  0  0  0
   -0.0424    1.2503   -0.4955 C   0  0  0  0  0  0  0  0  0  0  0  0
    0.9023    0.3665    0.0047 C   0  0  0  0  0  0  0  0  0  0  0  0
    2.3282    0.7842    0.0628 N   0  0  0  0  0  0  0  0  0  0  0  0
    2.6089    1.9096   -0.3379 O   0  0  0  0  0  0  0  0  0  0  0  0
    3.1382   -0.0269    0.5106 O   0  0  0  0  0  0  0  0  0  0  0  0
    0.5983   -0.9297    0.4732 C   0  0  0  0  0  0  0  0  0  0  0  0
   -0.7156   -1.3346    0.4270 C   0  0  0  0  0  0  0  0  0  0  0  0
   -3.7296    2.8842   -1.4854 H   0  0  0  0  0  0  0  0  0  0  0  0
    0.3090    2.2229   -0.8264 H   0  0  0  0  0  0  0  0  0  0  0  0
    1.3881   -1.5648    0.8505 H   0  0  0  0  0  0  0  0  0  0  0  0
   -1.0260   -2.3172    0.7697 H   0  0  0  0  0  0  0  0  0  0  0  0
   -5.6360    2.7943   -0.5147 S   0  0  0  0  0  0  0  0  0  0  0  0
   -4.5822    3.3423   -1.6077 O   0  0  0  0  0  0  0  0  0  0  0  0
   -6.9343    3.2559   -0.9553 O   0  0  0  0  0  0  0  0  0  0  0  0
   -5.3384    1.4103   -0.2056 O   0  0  0  0  0  0  0  0  0  0  0  0
   -5.2110    3.6284    0.8154 O   0  0  0  0  0  0  0  0  0  0  0  0
   -5.6323    4.5035    0.7653 H   0  0  0  0  0  0  0  0  0  0  0  0
  1 11  2  0  0  0  0
  2  1  1  0  0  0  0
  3  2  1  0  0  0  0
  4  5  2  0  0  0  0
  4  1  1  0  0  0  0
  5  6  1  0  0  0  0
  6  7  1  0  0  0  0
  6 10  2  0  0  0  0
  7  9  2  0  0  0  0
  8  7  2  0  0  0  0
 10 14  1  0  0  0  0
 11 10  1  0  0  0  0
 11 15  1  0  0  0  0
 13  5  1  0  0  0  0
 16 19  2  0  0  0  0
 16 20  1  0  0  0  0
 17 12  1  0  0  0  0
 17 16  1  0  0  0  0
 18 16  2  0  0  0  0
 21 20  1  0  0  0  0
M  RAD  3   2   2   3   3   4   2
M  END
