Coordinates from ORCA-job 4-NO2PhN2+~HSO4-_B3LYPG-6-31G_dp-CH-Scan-d09-49-n800
 OpenBabel11261919243D

 21 20  0  0  0  0  0  0  0  0999 V2000
   -1.6076   -0.3833   -0.0959 C   0  0  0  0  0  0  0  0  0  0  0  0
   -2.9520   -0.7847   -0.1554 N   0  0  0  0  0  0  0  0  0  0  0  0
   -4.0312   -1.0572   -0.2307 N   0  0  0  0  0  0  0  0  0  0  0  0
   -1.3978    0.9085   -0.5865 C   0  0  0  0  0  0  0  0  0  0  0  0
   -0.0123    1.2367   -0.4999 C   0  0  0  0  0  0  0  0  0  0  0  0
    0.9264    0.3506    0.0075 C   0  0  0  0  0  0  0  0  0  0  0  0
    2.3544    0.7610    0.0672 N   0  0  0  0  0  0  0  0  0  0  0  0
    2.6421    1.8836   -0.3368 O   0  0  0  0  0  0  0  0  0  0  0  0
    3.1593   -0.0525    0.5197 O   0  0  0  0  0  0  0  0  0  0  0  0
    0.6146   -0.9416    0.4821 C   0  0  0  0  0  0  0  0  0  0  0  0
   -0.7013   -1.3398    0.4351 C   0  0  0  0  0  0  0  0  0  0  0  0
   -3.7881    2.9479   -1.5209 H   0  0  0  0  0  0  0  0  0  0  0  0
    0.3453    2.2055   -0.8354 H   0  0  0  0  0  0  0  0  0  0  0  0
    1.4003   -1.5789    0.8644 H   0  0  0  0  0  0  0  0  0  0  0  0
   -1.0178   -2.3190    0.7820 H   0  0  0  0  0  0  0  0  0  0  0  0
   -5.6739    2.8070   -0.5165 S   0  0  0  0  0  0  0  0  0  0  0  0
   -4.6517    3.3880   -1.6241 O   0  0  0  0  0  0  0  0  0  0  0  0
   -6.9893    3.2432   -0.9309 O   0  0  0  0  0  0  0  0  0  0  0  0
   -5.3385    1.4279   -0.2255 O   0  0  0  0  0  0  0  0  0  0  0  0
   -5.2432    3.6401    0.8122 O   0  0  0  0  0  0  0  0  0  0  0  0
   -5.6843    4.5061    0.7770 H   0  0  0  0  0  0  0  0  0  0  0  0
  1 11  2  0  0  0  0
  2  1  1  0  0  0  0
  3  2  1  0  0  0  0
  4  5  2  0  0  0  0
  4  1  1  0  0  0  0
  5  6  1  0  0  0  0
  6  7  1  0  0  0  0
  6 10  2  0  0  0  0
  7  9  2  0  0  0  0
  8  7  2  0  0  0  0
 10 14  1  0  0  0  0
 11 10  1  0  0  0  0
 11 15  1  0  0  0  0
 13  5  1  0  0  0  0
 16 19  2  0  0  0  0
 16 20  1  0  0  0  0
 17 12  1  0  0  0  0
 17 16  1  0  0  0  0
 18 16  2  0  0  0  0
 21 20  1  0  0  0  0
M  RAD  3   2   2   3   3   4   2
M  END
