Coordinates from ORCA-job 4-NO2PhN2+~HSO4-_B3LYPG-6-31G_dp-CH-Scan-d09-49-n800
 OpenBabel11261919243D

 21 20  0  0  0  0  0  0  0  0999 V2000
   -1.5653   -0.3954   -0.1247 C   0  0  0  0  0  0  0  0  0  0  0  0
   -2.9138   -0.7835   -0.2062 N   0  0  0  0  0  0  0  0  0  0  0  0
   -3.9957   -1.0390   -0.3032 N   0  0  0  0  0  0  0  0  0  0  0  0
   -1.3363    0.8787   -0.6499 C   0  0  0  0  0  0  0  0  0  0  0  0
    0.0503    1.1985   -0.5387 C   0  0  0  0  0  0  0  0  0  0  0  0
    0.9687    0.3222    0.0202 C   0  0  0  0  0  0  0  0  0  0  0  0
    2.3979    0.7240    0.1047 N   0  0  0  0  0  0  0  0  0  0  0  0
    2.7042    1.8341   -0.3199 O   0  0  0  0  0  0  0  0  0  0  0  0
    3.1859   -0.0832    0.5969 O   0  0  0  0  0  0  0  0  0  0  0  0
    0.6352   -0.9532    0.5260 C   0  0  0  0  0  0  0  0  0  0  0  0
   -0.6822   -1.3434    0.4578 C   0  0  0  0  0  0  0  0  0  0  0  0
   -3.9632    3.0960   -1.6616 H   0  0  0  0  0  0  0  0  0  0  0  0
    0.4247    2.1536   -0.8953 H   0  0  0  0  0  0  0  0  0  0  0  0
    1.4064   -1.5838    0.9467 H   0  0  0  0  0  0  0  0  0  0  0  0
   -1.0153   -2.3094    0.8255 H   0  0  0  0  0  0  0  0  0  0  0  0
   -5.7393    2.8265   -0.4946 S   0  0  0  0  0  0  0  0  0  0  0  0
   -4.8574    3.4808   -1.6828 O   0  0  0  0  0  0  0  0  0  0  0  0
   -7.1078    3.2005   -0.7756 O   0  0  0  0  0  0  0  0  0  0  0  0
   -5.3056    1.4635   -0.2694 O   0  0  0  0  0  0  0  0  0  0  0  0
   -5.2260    3.6597    0.8035 O   0  0  0  0  0  0  0  0  0  0  0  0
   -5.7119    4.5018    0.8293 H   0  0  0  0  0  0  0  0  0  0  0  0
  1 11  2  0  0  0  0
  2  1  1  0  0  0  0
  3  2  1  0  0  0  0
  4  5  2  0  0  0  0
  4  1  1  0  0  0  0
  5  6  1  0  0  0  0
  6  7  1  0  0  0  0
  6 10  2  0  0  0  0
  7  9  2  0  0  0  0
  8  7  2  0  0  0  0
 10 14  1  0  0  0  0
 11 10  1  0  0  0  0
 11 15  1  0  0  0  0
 13  5  1  0  0  0  0
 16 19  2  0  0  0  0
 16 20  1  0  0  0  0
 17 12  1  0  0  0  0
 17 16  1  0  0  0  0
 18 16  2  0  0  0  0
 20 21  1  0  0  0  0
M  RAD  3   2   2   3   3   4   2
M  END
