Coordinates from ORCA-job 4-NO2PhN2+~HSO4-_B3LYPG-6-31G_dp-CH-Scan-d09-49-n800
 OpenBabel11261919243D

 21 20  0  0  0  0  0  0  0  0999 V2000
   -1.9477   -0.2966   -0.1852 C   0  0  0  0  0  0  0  0  0  0  0  0
   -3.2553   -0.7698   -0.2710 N   0  0  0  0  0  0  0  0  0  0  0  0
   -4.3181   -1.0912   -0.3395 N   0  0  0  0  0  0  0  0  0  0  0  0
   -1.7429    1.0422   -0.5446 C   0  0  0  0  0  0  0  0  0  0  0  0
   -0.4025    1.4531   -0.4480 C   0  0  0  0  0  0  0  0  0  0  0  0
    0.5822    0.5653   -0.0325 C   0  0  0  0  0  0  0  0  0  0  0  0
    1.9885    1.0406    0.0504 N   0  0  0  0  0  0  0  0  0  0  0  0
    2.2068    2.2067   -0.2568 O   0  0  0  0  0  0  0  0  0  0  0  0
    2.8320    0.2278    0.4210 O   0  0  0  0  0  0  0  0  0  0  0  0
    0.3284   -0.7693    0.3178 C   0  0  0  0  0  0  0  0  0  0  0  0
   -0.9723   -1.2263    0.2409 C   0  0  0  0  0  0  0  0  0  0  0  0
   -2.7804    1.8985   -0.9162 H   0  0  0  0  0  0  0  0  0  0  0  0
   -0.1209    2.4700   -0.6960 H   0  0  0  0  0  0  0  0  0  0  0  0
    1.1428   -1.4064    0.6359 H   0  0  0  0  0  0  0  0  0  0  0  0
   -1.2339   -2.2464    0.5004 H   0  0  0  0  0  0  0  0  0  0  0  0
   -4.9800    2.5664   -0.3918 S   0  0  0  0  0  0  0  0  0  0  0  0
   -3.7250    2.7080   -1.2576 O   0  0  0  0  0  0  0  0  0  0  0  0
   -6.1979    2.8522   -1.1448 O   0  0  0  0  0  0  0  0  0  0  0  0
   -4.9087    1.3316    0.4086 O   0  0  0  0  0  0  0  0  0  0  0  0
   -4.8340    3.7637    0.7307 O   0  0  0  0  0  0  0  0  0  0  0  0
   -5.3080    4.5287    0.3673 H   0  0  0  0  0  0  0  0  0  0  0  0
  1 11  2  0  0  0  0
  2  1  1  0  0  0  0
  3  2  1  0  0  0  0
  4  5  2  0  0  0  0
  4  1  1  0  0  0  0
  5  6  1  0  0  0  0
  6  7  1  0  0  0  0
  6 10  2  0  0  0  0
  7  9  2  0  0  0  0
  8  7  2  0  0  0  0
 10 14  1  0  0  0  0
 11 10  1  0  0  0  0
 11 15  1  0  0  0  0
 13  5  1  0  0  0  0
 16 19  2  0  0  0  0
 16 20  1  0  0  0  0
 17 12  1  0  0  0  0
 17 16  1  0  0  0  0
 18 16  2  0  0  0  0
 21 20  1  0  0  0  0
M  RAD  3   2   2   3   3   4   2
M  END
