Coordinates from ORCA-job 4-NO2PhN2+~HSO4-_B3LYPG-6-31G_dp-CH-Scan-d09-49-n800
 OpenBabel11261919243D

 21 20  0  0  0  0  0  0  0  0999 V2000
   -1.9166   -0.3459   -0.1730 C   0  0  0  0  0  0  0  0  0  0  0  0
   -3.2127   -0.8592   -0.2542 N   0  0  0  0  0  0  0  0  0  0  0  0
   -4.2584   -1.2330   -0.3324 N   0  0  0  0  0  0  0  0  0  0  0  0
   -1.7737    0.9905   -0.5721 C   0  0  0  0  0  0  0  0  0  0  0  0
   -0.4280    1.4198   -0.4686 C   0  0  0  0  0  0  0  0  0  0  0  0
    0.5755    0.5718   -0.0212 C   0  0  0  0  0  0  0  0  0  0  0  0
    1.9694    1.0829    0.0624 N   0  0  0  0  0  0  0  0  0  0  0  0
    2.1680    2.2432   -0.2804 O   0  0  0  0  0  0  0  0  0  0  0  0
    2.8293    0.3047    0.4706 O   0  0  0  0  0  0  0  0  0  0  0  0
    0.3566   -0.7626    0.3657 C   0  0  0  0  0  0  0  0  0  0  0  0
   -0.9293   -1.2514    0.2909 C   0  0  0  0  0  0  0  0  0  0  0  0
   -3.0396    2.0245   -1.0608 H   0  0  0  0  0  0  0  0  0  0  0  0
   -0.1550    2.4338   -0.7405 H   0  0  0  0  0  0  0  0  0  0  0  0
    1.1854   -1.3679    0.7075 H   0  0  0  0  0  0  0  0  0  0  0  0
   -1.1704   -2.2707    0.5745 H   0  0  0  0  0  0  0  0  0  0  0  0
   -5.0627    2.6030   -0.4266 S   0  0  0  0  0  0  0  0  0  0  0  0
   -3.8164    2.6880   -1.3759 O   0  0  0  0  0  0  0  0  0  0  0  0
   -6.2114    3.1708   -1.1106 O   0  0  0  0  0  0  0  0  0  0  0  0
   -5.1220    1.2862    0.2010 O   0  0  0  0  0  0  0  0  0  0  0  0
   -4.6708    3.6165    0.7991 O   0  0  0  0  0  0  0  0  0  0  0  0
   -4.9640    4.5038    0.5336 H   0  0  0  0  0  0  0  0  0  0  0  0
  1 11  2  0  0  0  0
  2  1  1  0  0  0  0
  3  2  1  0  0  0  0
  4  5  2  0  0  0  0
  4  1  1  0  0  0  0
  5  6  1  0  0  0  0
  6  7  1  0  0  0  0
  6 10  2  0  0  0  0
  7  9  2  0  0  0  0
  8  7  2  0  0  0  0
 10 14  1  0  0  0  0
 11 10  1  0  0  0  0
 11 15  1  0  0  0  0
 13  5  1  0  0  0  0
 16 19  2  0  0  0  0
 16 20  1  0  0  0  0
 17 12  1  0  0  0  0
 17 16  1  0  0  0  0
 18 16  2  0  0  0  0
 21 20  1  0  0  0  0
M  RAD  3   2   2   3   3   4   2
M  END
