Coordinates from ORCA-job 4-NO2PhN2+~HSO4-_B3LYPG-6-31G_dp-CH-Scan-d09-49-n800
 OpenBabel11261919243D

 21 20  0  0  0  0  0  0  0  0999 V2000
   -1.6270   -0.3812   -0.0967 C   0  0  0  0  0  0  0  0  0  0  0  0
   -2.9684   -0.7910   -0.1554 N   0  0  0  0  0  0  0  0  0  0  0  0
   -4.0455   -1.0717   -0.2287 N   0  0  0  0  0  0  0  0  0  0  0  0
   -1.4234    0.9143   -0.5813 C   0  0  0  0  0  0  0  0  0  0  0  0
   -0.0398    1.2490   -0.4960 C   0  0  0  0  0  0  0  0  0  0  0  0
    0.9044    0.3649    0.0047 C   0  0  0  0  0  0  0  0  0  0  0  0
    2.3306    0.7820    0.0628 N   0  0  0  0  0  0  0  0  0  0  0  0
    2.6117    1.9076   -0.3373 O   0  0  0  0  0  0  0  0  0  0  0  0
    3.1400   -0.0289    0.5119 O   0  0  0  0  0  0  0  0  0  0  0  0
    0.5999   -0.9309    0.4738 C   0  0  0  0  0  0  0  0  0  0  0  0
   -0.7142   -1.3352    0.4277 C   0  0  0  0  0  0  0  0  0  0  0  0
   -3.7348    2.8896   -1.4884 H   0  0  0  0  0  0  0  0  0  0  0  0
    0.3122    2.2213   -0.8273 H   0  0  0  0  0  0  0  0  0  0  0  0
    1.3894   -1.5662    0.8515 H   0  0  0  0  0  0  0  0  0  0  0  0
   -1.0251   -2.3175    0.7707 H   0  0  0  0  0  0  0  0  0  0  0  0
   -5.6396    2.7956   -0.5148 S   0  0  0  0  0  0  0  0  0  0  0  0
   -4.5883    3.3462   -1.6091 O   0  0  0  0  0  0  0  0  0  0  0  0
   -6.9393    3.2551   -0.9532 O   0  0  0  0  0  0  0  0  0  0  0  0
   -5.3388    1.4120   -0.2072 O   0  0  0  0  0  0  0  0  0  0  0  0
   -5.2140    3.6297    0.8151 O   0  0  0  0  0  0  0  0  0  0  0  0
   -5.6368    4.5041    0.7661 H   0  0  0  0  0  0  0  0  0  0  0  0
  1 11  2  0  0  0  0
  2  1  1  0  0  0  0
  3  2  1  0  0  0  0
  4  5  2  0  0  0  0
  4  1  1  0  0  0  0
  5  6  1  0  0  0  0
  6  7  1  0  0  0  0
  6 10  2  0  0  0  0
  7  9  2  0  0  0  0
  8  7  2  0  0  0  0
 10 14  1  0  0  0  0
 11 10  1  0  0  0  0
 11 15  1  0  0  0  0
 13  5  1  0  0  0  0
 16 19  2  0  0  0  0
 16 20  1  0  0  0  0
 17 12  1  0  0  0  0
 17 16  1  0  0  0  0
 18 16  2  0  0  0  0
 21 20  1  0  0  0  0
M  RAD  3   2   2   3   3   4   2
M  END
