Coordinates from ORCA-job 4-NO2PhN2+~HSO4-_B3LYPG-6-31G_dp-CH-Scan-d09-49-n800
 OpenBabel11261919243D

 21 20  0  0  0  0  0  0  0  0999 V2000
   -1.6827   -0.4987   -0.6700 C   0  0  0  0  0  0  0  0  0  0  0  0
   -2.9181   -1.0339   -1.0773 N   0  0  0  0  0  0  0  0  0  0  0  0
   -3.8891   -1.4092   -1.4795 N   0  0  0  0  0  0  0  0  0  0  0  0
   -1.2310    0.4850   -1.5492 C   0  0  0  0  0  0  0  0  0  0  0  0
    0.0246    0.9898   -1.0943 C   0  0  0  0  0  0  0  0  0  0  0  0
    0.6299    0.5241    0.0637 C   0  0  0  0  0  0  0  0  0  0  0  0
    1.9318    1.1039    0.4867 N   0  0  0  0  0  0  0  0  0  0  0  0
    2.4102    1.9985   -0.2048 O   0  0  0  0  0  0  0  0  0  0  0  0
    2.4516    0.6513    1.5067 O   0  0  0  0  0  0  0  0  0  0  0  0
    0.0848   -0.4846    0.8891 C   0  0  0  0  0  0  0  0  0  0  0  0
   -1.1224   -1.0313    0.5199 C   0  0  0  0  0  0  0  0  0  0  0  0
   -4.6136    2.9944   -2.0732 H   0  0  0  0  0  0  0  0  0  0  0  0
    0.5414    1.7657   -1.6523 H   0  0  0  0  0  0  0  0  0  0  0  0
    0.6169   -0.7988    1.7767 H   0  0  0  0  0  0  0  0  0  0  0  0
   -1.6048   -1.8105    1.1028 H   0  0  0  0  0  0  0  0  0  0  0  0
   -5.1211    2.5666   -0.0331 S   0  0  0  0  0  0  0  0  0  0  0  0
   -5.2455    3.3697   -1.4354 O   0  0  0  0  0  0  0  0  0  0  0  0
   -6.2842    2.9485    0.7358 O   0  0  0  0  0  0  0  0  0  0  0  0
   -4.7472    1.1936   -0.3045 O   0  0  0  0  0  0  0  0  0  0  0  0
   -3.8040    3.2464    0.6277 O   0  0  0  0  0  0  0  0  0  0  0  0
   -4.0740    4.0785    1.0534 H   0  0  0  0  0  0  0  0  0  0  0  0
  1 11  2  0  0  0  0
  2  1  1  0  0  0  0
  3  2  1  0  0  0  0
  4  5  2  0  0  0  0
  4  1  1  0  0  0  0
  5  6  1  0  0  0  0
  6  7  1  0  0  0  0
  6 10  2  0  0  0  0
  7  9  2  0  0  0  0
  8  7  2  0  0  0  0
 10 14  1  0  0  0  0
 11 10  1  0  0  0  0
 11 15  1  0  0  0  0
 12 17  1  0  0  0  0
 13  5  1  0  0  0  0
 16 20  1  0  0  0  0
 16 18  2  0  0  0  0
 17 16  1  0  0  0  0
 19 16  2  0  0  0  0
 20 21  1  0  0  0  0
M  RAD  3   2   2   3   3   4   2
M  END
