Coordinates from ORCA-job 4-NO2PhN2+~HSO4-_B3LYPG-6-31G_dp-CH-Scan-d09-49-n800
 OpenBabel11261919243D

 21 20  0  0  0  0  0  0  0  0999 V2000
   -1.9423   -0.3116   -0.1839 C   0  0  0  0  0  0  0  0  0  0  0  0
   -3.2454   -0.8000   -0.2688 N   0  0  0  0  0  0  0  0  0  0  0  0
   -4.2983   -1.1512   -0.3432 N   0  0  0  0  0  0  0  0  0  0  0  0
   -1.7617    1.0300   -0.5469 C   0  0  0  0  0  0  0  0  0  0  0  0
   -0.4183    1.4455   -0.4473 C   0  0  0  0  0  0  0  0  0  0  0  0
    0.5742    0.5683   -0.0302 C   0  0  0  0  0  0  0  0  0  0  0  0
    1.9765    1.0554    0.0546 N   0  0  0  0  0  0  0  0  0  0  0  0
    2.1879    2.2210   -0.2598 O   0  0  0  0  0  0  0  0  0  0  0  0
    2.8258    0.2527    0.4347 O   0  0  0  0  0  0  0  0  0  0  0  0
    0.3338   -0.7697    0.3221 C   0  0  0  0  0  0  0  0  0  0  0  0
   -0.9617   -1.2372    0.2455 C   0  0  0  0  0  0  0  0  0  0  0  0
   -2.8582    1.9357   -0.9408 H   0  0  0  0  0  0  0  0  0  0  0  0
   -0.1406    2.4637   -0.6957 H   0  0  0  0  0  0  0  0  0  0  0  0
    1.1543   -1.3983    0.6413 H   0  0  0  0  0  0  0  0  0  0  0  0
   -1.2155   -2.2594    0.5055 H   0  0  0  0  0  0  0  0  0  0  0  0
   -4.9875    2.5737   -0.3895 S   0  0  0  0  0  0  0  0  0  0  0  0
   -3.7248    2.6870   -1.2710 O   0  0  0  0  0  0  0  0  0  0  0  0
   -6.1846    2.9168   -1.1470 O   0  0  0  0  0  0  0  0  0  0  0  0
   -4.9444    1.3295    0.3888 O   0  0  0  0  0  0  0  0  0  0  0  0
   -4.7880    3.7537    0.7373 O   0  0  0  0  0  0  0  0  0  0  0  0
   -5.2278    4.5433    0.3830 H   0  0  0  0  0  0  0  0  0  0  0  0
  1 11  2  0  0  0  0
  2  1  1  0  0  0  0
  3  2  1  0  0  0  0
  4  5  2  0  0  0  0
  4  1  1  0  0  0  0
  5  6  1  0  0  0  0
  6  7  1  0  0  0  0
  6 10  2  0  0  0  0
  7  9  2  0  0  0  0
  8  7  2  0  0  0  0
 10 14  1  0  0  0  0
 11 10  1  0  0  0  0
 11 15  1  0  0  0  0
 13  5  1  0  0  0  0
 16 19  2  0  0  0  0
 16 20  1  0  0  0  0
 17 12  1  0  0  0  0
 17 16  1  0  0  0  0
 18 16  2  0  0  0  0
 21 20  1  0  0  0  0
M  RAD  3   2   2   3   3   4   2
M  END
