Coordinates from ORCA-job 4-NO2PhN2+~HSO4-_B3LYPG-6-31G_dp-CH-Scan-d09-49-n800
 OpenBabel11261919243D

 21 20  0  0  0  0  0  0  0  0999 V2000
   -1.5709   -0.4328   -0.2763 C   0  0  0  0  0  0  0  0  0  0  0  0
   -2.9025   -0.8501   -0.4559 N   0  0  0  0  0  0  0  0  0  0  0  0
   -3.9671   -1.1261   -0.6453 N   0  0  0  0  0  0  0  0  0  0  0  0
   -1.3032    0.7794   -0.9141 C   0  0  0  0  0  0  0  0  0  0  0  0
    0.0622    1.1383   -0.7008 C   0  0  0  0  0  0  0  0  0  0  0  0
    0.9254    0.3493    0.0447 C   0  0  0  0  0  0  0  0  0  0  0  0
    2.3335    0.7884    0.2309 N   0  0  0  0  0  0  0  0  0  0  0  0
    2.6739    1.8483   -0.2864 O   0  0  0  0  0  0  0  0  0  0  0  0
    3.0723    0.0608    0.8942 O   0  0  0  0  0  0  0  0  0  0  0  0
    0.5533   -0.8696    0.6535 C   0  0  0  0  0  0  0  0  0  0  0  0
   -0.7457   -1.2935    0.4950 C   0  0  0  0  0  0  0  0  0  0  0  0
   -4.2329    3.1158   -1.9344 H   0  0  0  0  0  0  0  0  0  0  0  0
    0.4624    2.0555   -1.1232 H   0  0  0  0  0  0  0  0  0  0  0  0
    1.2834   -1.4334    1.2183 H   0  0  0  0  0  0  0  0  0  0  0  0
   -1.1054   -2.2212    0.9302 H   0  0  0  0  0  0  0  0  0  0  0  0
   -5.6656    2.8014   -0.3709 S   0  0  0  0  0  0  0  0  0  0  0  0
   -5.1008    3.4993   -1.7188 O   0  0  0  0  0  0  0  0  0  0  0  0
   -7.0607    3.1751   -0.2977 O   0  0  0  0  0  0  0  0  0  0  0  0
   -5.1910    1.4349   -0.3042 O   0  0  0  0  0  0  0  0  0  0  0  0
   -4.8494    3.5976    0.7867 O   0  0  0  0  0  0  0  0  0  0  0  0
   -5.3178    4.4317    0.9632 H   0  0  0  0  0  0  0  0  0  0  0  0
  1 11  2  0  0  0  0
  2  1  1  0  0  0  0
  3  2  1  0  0  0  0
  4  5  2  0  0  0  0
  4  1  1  0  0  0  0
  5  6  1  0  0  0  0
  6  7  1  0  0  0  0
  6 10  2  0  0  0  0
  7  9  2  0  0  0  0
  8  7  2  0  0  0  0
 10 14  1  0  0  0  0
 11 10  1  0  0  0  0
 11 15  1  0  0  0  0
 12 17  1  0  0  0  0
 13  5  1  0  0  0  0
 16 19  2  0  0  0  0
 16 18  2  0  0  0  0
 16 20  1  0  0  0  0
 17 16  1  0  0  0  0
 20 21  1  0  0  0  0
M  RAD  3   2   2   3   3   4   2
M  END
