Coordinates from ORCA-job 4-NO2PhN2+~HSO4-_B3LYPG-6-31G_dp-CH-Scan-d09-49-n800
 OpenBabel11261919243D

 21 20  0  0  0  0  0  0  0  0999 V2000
   -2.0208    0.0592   -0.3517 C   0  0  0  0  0  0  0  0  0  0  0  0
   -3.3715   -0.2092   -0.5472 N   0  0  0  0  0  0  0  0  0  0  0  0
   -4.4414   -0.4570   -0.7730 N   0  0  0  0  0  0  0  0  0  0  0  0
   -1.5182    1.3256   -0.6904 C   0  0  0  0  0  0  0  0  0  0  0  0
   -0.1519    1.5277   -0.5182 C   0  0  0  0  0  0  0  0  0  0  0  0
    0.6324    0.4962   -0.0077 C   0  0  0  0  0  0  0  0  0  0  0  0
    2.0842    0.7342    0.1812 N   0  0  0  0  0  0  0  0  0  0  0  0
    2.5177    1.8352   -0.1388 O   0  0  0  0  0  0  0  0  0  0  0  0
    2.7460   -0.1918    0.6417 O   0  0  0  0  0  0  0  0  0  0  0  0
    0.1212   -0.7558    0.3359 C   0  0  0  0  0  0  0  0  0  0  0  0
   -1.2340   -0.9887    0.1540 C   0  0  0  0  0  0  0  0  0  0  0  0
   -2.1607    2.0862   -1.0546 H   0  0  0  0  0  0  0  0  0  0  0  0
    0.3038    2.4790   -0.7620 H   0  0  0  0  0  0  0  0  0  0  0  0
    0.7824   -1.5169    0.7289 H   0  0  0  0  0  0  0  0  0  0  0  0
   -1.6797   -1.9454    0.4002 H   0  0  0  0  0  0  0  0  0  0  0  0
   -4.7437    2.5496   -0.3175 S   0  0  0  0  0  0  0  0  0  0  0  0
   -4.0044    3.2113   -1.4030 O   0  0  0  0  0  0  0  0  0  0  0  0
   -5.7109    1.4909   -0.7592 O   0  0  0  0  0  0  0  0  0  0  0  0
   -3.8763    2.0346    0.7776 O   0  0  0  0  0  0  0  0  0  0  0  0
   -5.6677    3.7486    0.3188 O   0  0  0  0  0  0  0  0  0  0  0  0
   -6.2532    3.3355    0.9739 H   0  0  0  0  0  0  0  0  0  0  0  0
  1 11  2  0  0  0  0
  2  1  1  0  0  0  0
  3  2  1  0  0  0  0
  4  5  2  0  0  0  0
  4  1  1  0  0  0  0
  5  6  1  0  0  0  0
  6  7  1  0  0  0  0
  6 10  2  0  0  0  0
  7  9  2  0  0  0  0
  8  7  2  0  0  0  0
 10 14  1  0  0  0  0
 11 10  1  0  0  0  0
 11 15  1  0  0  0  0
 12  4  1  0  0  0  0
 13  5  1  0  0  0  0
 16 20  1  0  0  0  0
 16 19  1  0  0  0  0
 17 16  2  0  0  0  0
 18 16  2  0  0  0  0
 20 21  1  0  0  0  0
M  RAD  3   2   2   3   3  19   2
M  END
