Coordinates from ORCA-job 4-NO2PhN2+~HSO4-_B3LYPG-6-31G_dp-CH-Scan-d09-49-n800
 OpenBabel11261919243D

 21 20  0  0  0  0  0  0  0  0999 V2000
   -1.7029   -0.3718   -0.1068 C   0  0  0  0  0  0  0  0  0  0  0  0
   -3.0322   -0.8123   -0.1669 N   0  0  0  0  0  0  0  0  0  0  0  0
   -4.1005   -1.1236   -0.2383 N   0  0  0  0  0  0  0  0  0  0  0  0
   -1.5210    0.9376   -0.5653 C   0  0  0  0  0  0  0  0  0  0  0  0
   -0.1458    1.2987   -0.4796 C   0  0  0  0  0  0  0  0  0  0  0  0
    0.8178    0.4228   -0.0014 C   0  0  0  0  0  0  0  0  0  0  0  0
    2.2360    0.8664    0.0576 N   0  0  0  0  0  0  0  0  0  0  0  0
    2.4937    2.0014   -0.3309 O   0  0  0  0  0  0  0  0  0  0  0  0
    3.0627    0.0616    0.4848 O   0  0  0  0  0  0  0  0  0  0  0  0
    0.5399   -0.8867    0.4428 C   0  0  0  0  0  0  0  0  0  0  0  0
   -0.7666   -1.3152    0.3942 C   0  0  0  0  0  0  0  0  0  0  0  0
   -3.5476    2.6493   -1.3710 H   0  0  0  0  0  0  0  0  0  0  0  0
    0.1844    2.2842   -0.7927 H   0  0  0  0  0  0  0  0  0  0  0  0
    1.3427   -1.5145    0.8048 H   0  0  0  0  0  0  0  0  0  0  0  0
   -1.0563   -2.3097    0.7197 H   0  0  0  0  0  0  0  0  0  0  0  0
   -5.5019    2.7481   -0.5009 S   0  0  0  0  0  0  0  0  0  0  0  0
   -4.3611    3.1636   -1.5554 O   0  0  0  0  0  0  0  0  0  0  0  0
   -6.7404    3.2874   -1.0204 O   0  0  0  0  0  0  0  0  0  0  0  0
   -5.3352    1.3587   -0.1198 O   0  0  0  0  0  0  0  0  0  0  0  0
   -5.0794    3.6016    0.8194 O   0  0  0  0  0  0  0  0  0  0  0  0
   -5.4331    4.5014    0.7151 H   0  0  0  0  0  0  0  0  0  0  0  0
  1 11  2  0  0  0  0
  2  1  1  0  0  0  0
  3  2  1  0  0  0  0
  4  5  2  0  0  0  0
  4  1  1  0  0  0  0
  5  6  1  0  0  0  0
  6  7  1  0  0  0  0
  6 10  2  0  0  0  0
  7  9  2  0  0  0  0
  8  7  2  0  0  0  0
 10 14  1  0  0  0  0
 11 10  1  0  0  0  0
 11 15  1  0  0  0  0
 13  5  1  0  0  0  0
 16 19  2  0  0  0  0
 16 20  1  0  0  0  0
 17 12  1  0  0  0  0
 17 16  1  0  0  0  0
 18 16  2  0  0  0  0
 21 20  1  0  0  0  0
M  RAD  3   2   2   3   3   4   2
M  END
