Coordinates from ORCA-job 4-NO2PhN2+~HSO4-_B3LYPG-6-31G_dp-CH-Scan-d09-49-n800
 OpenBabel11261919243D

 21 20  0  0  0  0  0  0  0  0999 V2000
   -1.6132   -0.4628   -1.0612 C   0  0  0  0  0  0  0  0  0  0  0  0
   -2.8188   -1.0549   -1.4913 N   0  0  0  0  0  0  0  0  0  0  0  0
   -3.7252   -1.5476   -1.9159 N   0  0  0  0  0  0  0  0  0  0  0  0
   -0.6134   -0.5855   -2.0238 C   0  0  0  0  0  0  0  0  0  0  0  0
    0.5847    0.0326   -1.5479 C   0  0  0  0  0  0  0  0  0  0  0  0
    0.6539    0.6423   -0.3044 C   0  0  0  0  0  0  0  0  0  0  0  0
    1.9269    1.2787    0.1253 N   0  0  0  0  0  0  0  0  0  0  0  0
    2.8961    1.1793   -0.6206 O   0  0  0  0  0  0  0  0  0  0  0  0
    1.9283    1.8719    1.2049 O   0  0  0  0  0  0  0  0  0  0  0  0
   -0.4265    0.7054    0.6056 C   0  0  0  0  0  0  0  0  0  0  0  0
   -1.6192    0.1300    0.2292 C   0  0  0  0  0  0  0  0  0  0  0  0
   -3.2403    3.0955   -0.3562 H   0  0  0  0  0  0  0  0  0  0  0  0
    1.4812    0.0397   -2.1618 H   0  0  0  0  0  0  0  0  0  0  0  0
   -0.2917    1.1877    1.5643 H   0  0  0  0  0  0  0  0  0  0  0  0
   -2.4932    0.1283    0.8723 H   0  0  0  0  0  0  0  0  0  0  0  0
   -5.1078    2.2467    0.2631 S   0  0  0  0  0  0  0  0  0  0  0  0
   -4.1206    3.4601   -0.1569 O   0  0  0  0  0  0  0  0  0  0  0  0
   -6.4475    2.7790    0.1834 O   0  0  0  0  0  0  0  0  0  0  0  0
   -4.6733    1.0349   -0.4052 O   0  0  0  0  0  0  0  0  0  0  0  0
   -4.7149    2.0233    1.8242 O   0  0  0  0  0  0  0  0  0  0  0  0
   -5.2125    2.6644    2.3614 H   0  0  0  0  0  0  0  0  0  0  0  0
  1 11  2  0  0  0  0
  2  1  1  0  0  0  0
  3  2  1  0  0  0  0
  4  5  2  0  0  0  0
  4  1  1  0  0  0  0
  5  6  1  0  0  0  0
  6  7  1  0  0  0  0
  6 10  2  0  0  0  0
  7  9  2  0  0  0  0
  8  7  2  0  0  0  0
 10 14  1  0  0  0  0
 11 10  1  0  0  0  0
 11 15  1  0  0  0  0
 12 17  1  0  0  0  0
 13  5  1  0  0  0  0
 16 20  1  0  0  0  0
 17 16  1  0  0  0  0
 18 16  2  0  0  0  0
 19 16  2  0  0  0  0
 20 21  1  0  0  0  0
M  RAD  3   2   2   3   3   4   2
M  END
