Coordinates from ORCA-job 4-NO2PhN2+~HSO4-_B3LYPG-6-31G_dp-CH-Scan-d09-49-n800
 OpenBabel11261919243D

 21 20  0  0  0  0  0  0  0  0999 V2000
   -1.6271   -0.5043   -1.0537 C   0  0  0  0  0  0  0  0  0  0  0  0
   -2.8296   -1.1102   -1.4724 N   0  0  0  0  0  0  0  0  0  0  0  0
   -3.7344   -1.6152   -1.8854 N   0  0  0  0  0  0  0  0  0  0  0  0
   -0.6185   -0.6553   -2.0025 C   0  0  0  0  0  0  0  0  0  0  0  0
    0.5680    0.0004   -1.5455 C   0  0  0  0  0  0  0  0  0  0  0  0
    0.6139    0.6836   -0.3404 C   0  0  0  0  0  0  0  0  0  0  0  0
    1.8680    1.3740    0.0603 N   0  0  0  0  0  0  0  0  0  0  0  0
    2.8323    1.2904   -0.6934 O   0  0  0  0  0  0  0  0  0  0  0  0
    1.8597    1.9898    1.1271 O   0  0  0  0  0  0  0  0  0  0  0  0
   -0.4712    0.7628    0.5640 C   0  0  0  0  0  0  0  0  0  0  0  0
   -1.6480    0.1400    0.2125 C   0  0  0  0  0  0  0  0  0  0  0  0
   -2.9813    2.8733   -0.0126 H   0  0  0  0  0  0  0  0  0  0  0  0
    1.4724   -0.0183   -2.1474 H   0  0  0  0  0  0  0  0  0  0  0  0
   -0.3459    1.2829    1.5044 H   0  0  0  0  0  0  0  0  0  0  0  0
   -2.5182    0.1294    0.8610 H   0  0  0  0  0  0  0  0  0  0  0  0
   -5.0272    2.2814    0.2407 S   0  0  0  0  0  0  0  0  0  0  0  0
   -3.8259    3.3525    0.0655 O   0  0  0  0  0  0  0  0  0  0  0  0
   -6.2489    3.0134    0.0033 O   0  0  0  0  0  0  0  0  0  0  0  0
   -4.6693    1.0540   -0.4444 O   0  0  0  0  0  0  0  0  0  0  0  0
   -4.9203    1.9200    1.8220 O   0  0  0  0  0  0  0  0  0  0  0  0
   -5.3951    2.6041    2.3257 H   0  0  0  0  0  0  0  0  0  0  0  0
  1 11  2  0  0  0  0
  2  1  1  0  0  0  0
  3  2  1  0  0  0  0
  4  5  2  0  0  0  0
  4  1  1  0  0  0  0
  5  6  1  0  0  0  0
  6  7  1  0  0  0  0
  6 10  2  0  0  0  0
  7  9  2  0  0  0  0
  8  7  2  0  0  0  0
 10 14  1  0  0  0  0
 11 10  1  0  0  0  0
 11 15  1  0  0  0  0
 12 17  1  0  0  0  0
 13  5  1  0  0  0  0
 16 20  1  0  0  0  0
 17 16  1  0  0  0  0
 18 16  2  0  0  0  0
 19 16  2  0  0  0  0
 20 21  1  0  0  0  0
M  RAD  3   2   2   3   3   4   2
M  END
