Coordinates from ORCA-job 4-NO2PhN2+~HSO4-_B3LYPG-6-31G_dp-CH-Scan-d09-49-n800
 OpenBabel11261919243D

 21 20  0  0  0  0  0  0  0  0999 V2000
   -1.8087   -0.3637   -0.1342 C   0  0  0  0  0  0  0  0  0  0  0  0
   -3.1206   -0.8450   -0.2016 N   0  0  0  0  0  0  0  0  0  0  0  0
   -4.1774   -1.1912   -0.2722 N   0  0  0  0  0  0  0  0  0  0  0  0
   -1.6558    0.9616   -0.5616 C   0  0  0  0  0  0  0  0  0  0  0  0
   -0.2947    1.3613   -0.4677 C   0  0  0  0  0  0  0  0  0  0  0  0
    0.6934    0.5022   -0.0090 C   0  0  0  0  0  0  0  0  0  0  0  0
    2.0981    0.9853    0.0608 N   0  0  0  0  0  0  0  0  0  0  0  0
    2.3210    2.1368   -0.2982 O   0  0  0  0  0  0  0  0  0  0  0  0
    2.9458    0.1962    0.4752 O   0  0  0  0  0  0  0  0  0  0  0  0
    0.4519   -0.8231    0.4040 C   0  0  0  0  0  0  0  0  0  0  0  0
   -0.8425   -1.2872    0.3444 C   0  0  0  0  0  0  0  0  0  0  0  0
   -3.3202    2.3291   -1.2343 H   0  0  0  0  0  0  0  0  0  0  0  0
    0.0046    2.3630   -0.7584 H   0  0  0  0  0  0  0  0  0  0  0  0
    1.2715   -1.4370    0.7523 H   0  0  0  0  0  0  0  0  0  0  0  0
   -1.1034   -2.2965    0.6471 H   0  0  0  0  0  0  0  0  0  0  0  0
   -5.2962    2.6790   -0.4697 S   0  0  0  0  0  0  0  0  0  0  0  0
   -4.0907    2.9057   -1.4905 O   0  0  0  0  0  0  0  0  0  0  0  0
   -6.4664    3.2902   -1.0660 O   0  0  0  0  0  0  0  0  0  0  0  0
   -5.2847    1.3093    0.0151 O   0  0  0  0  0  0  0  0  0  0  0  0
   -4.8494    3.5784    0.8154 O   0  0  0  0  0  0  0  0  0  0  0  0
   -5.1223    4.4945    0.6377 H   0  0  0  0  0  0  0  0  0  0  0  0
  1 11  2  0  0  0  0
  2  1  1  0  0  0  0
  3  2  1  0  0  0  0
  4  5  2  0  0  0  0
  4  1  1  0  0  0  0
  5  6  1  0  0  0  0
  6  7  1  0  0  0  0
  6 10  2  0  0  0  0
  7  9  2  0  0  0  0
  8  7  2  0  0  0  0
 10 14  1  0  0  0  0
 11 10  1  0  0  0  0
 11 15  1  0  0  0  0
 13  5  1  0  0  0  0
 16 19  2  0  0  0  0
 16 20  1  0  0  0  0
 17 12  1  0  0  0  0
 17 16  1  0  0  0  0
 18 16  2  0  0  0  0
 21 20  1  0  0  0  0
M  RAD  3   2   2   3   3   4   2
M  END
