Coordinates from ORCA-job 4-NO2PhN2+~HSO4-_B3LYPG-6-31G_dp-CH-Scan-d09-49-n800
 OpenBabel11261919243D

 21 20  0  0  0  0  0  0  0  0999 V2000
   -1.6708   -0.4798   -0.5331 C   0  0  0  0  0  0  0  0  0  0  0  0
   -2.9394   -0.9866   -0.8676 N   0  0  0  0  0  0  0  0  0  0  0  0
   -3.9460   -1.3367   -1.1985 N   0  0  0  0  0  0  0  0  0  0  0  0
   -1.3266    0.6253   -1.3121 C   0  0  0  0  0  0  0  0  0  0  0  0
   -0.0294    1.0878   -0.9362 C   0  0  0  0  0  0  0  0  0  0  0  0
    0.7077    0.4793    0.0688 C   0  0  0  0  0  0  0  0  0  0  0  0
    2.0484    1.0199    0.4153 N   0  0  0  0  0  0  0  0  0  0  0  0
    2.4421    2.0068   -0.1998 O   0  0  0  0  0  0  0  0  0  0  0  0
    2.6819    0.4450    1.3003 O   0  0  0  0  0  0  0  0  0  0  0  0
    0.2653   -0.6434    0.8031 C   0  0  0  0  0  0  0  0  0  0  0  0
   -0.9739   -1.1584    0.5005 C   0  0  0  0  0  0  0  0  0  0  0  0
   -4.4322    2.9540   -2.0899 H   0  0  0  0  0  0  0  0  0  0  0  0
    0.4163    1.9437   -1.4349 H   0  0  0  0  0  0  0  0  0  0  0  0
    0.8979   -1.0661    1.5721 H   0  0  0  0  0  0  0  0  0  0  0  0
   -1.3816   -2.0210    1.0194 H   0  0  0  0  0  0  0  0  0  0  0  0
   -5.2909    2.6575   -0.1453 S   0  0  0  0  0  0  0  0  0  0  0  0
   -5.1602    3.3691   -1.5951 O   0  0  0  0  0  0  0  0  0  0  0  0
   -6.5543    3.1097    0.3928 O   0  0  0  0  0  0  0  0  0  0  0  0
   -4.9167    1.2632   -0.2611 O   0  0  0  0  0  0  0  0  0  0  0  0
   -4.0837    3.3592    0.6836 O   0  0  0  0  0  0  0  0  0  0  0  0
   -4.4007    4.2204    1.0063 H   0  0  0  0  0  0  0  0  0  0  0  0
  1 11  2  0  0  0  0
  2  1  1  0  0  0  0
  3  2  1  0  0  0  0
  4  5  2  0  0  0  0
  4  1  1  0  0  0  0
  5  6  1  0  0  0  0
  6  7  1  0  0  0  0
  6 10  2  0  0  0  0
  7  9  2  0  0  0  0
  8  7  2  0  0  0  0
 10 14  1  0  0  0  0
 11 10  1  0  0  0  0
 11 15  1  0  0  0  0
 12 17  1  0  0  0  0
 13  5  1  0  0  0  0
 16 18  2  0  0  0  0
 16 20  1  0  0  0  0
 17 16  1  0  0  0  0
 19 16  2  0  0  0  0
 20 21  1  0  0  0  0
M  RAD  3   2   2   3   3   4   2
M  END
