Coordinates from ORCA-job 4-NO2PhN2+~HSO4-_B3LYPG-6-31G_dp-CH-Scan-d09-49-n800
 OpenBabel11261919243D

 21 20  0  0  0  0  0  0  0  0999 V2000
   -1.7792   -0.3662   -0.1264 C   0  0  0  0  0  0  0  0  0  0  0  0
   -3.0960   -0.8365   -0.1920 N   0  0  0  0  0  0  0  0  0  0  0  0
   -4.1561   -1.1734   -0.2625 N   0  0  0  0  0  0  0  0  0  0  0  0
   -1.6188    0.9556   -0.5604 C   0  0  0  0  0  0  0  0  0  0  0  0
   -0.2537    1.3448   -0.4689 C   0  0  0  0  0  0  0  0  0  0  0  0
    0.7281    0.4805   -0.0067 C   0  0  0  0  0  0  0  0  0  0  0  0
    2.1366    0.9528    0.0601 N   0  0  0  0  0  0  0  0  0  0  0  0
    2.3686    2.1009   -0.3045 O   0  0  0  0  0  0  0  0  0  0  0  0
    2.9787    0.1592    0.4774 O   0  0  0  0  0  0  0  0  0  0  0  0
    0.4770   -0.8414    0.4130 C   0  0  0  0  0  0  0  0  0  0  0  0
   -0.8208   -1.2959    0.3565 C   0  0  0  0  0  0  0  0  0  0  0  0
   -3.3832    2.4137   -1.2715 H   0  0  0  0  0  0  0  0  0  0  0  0
    0.0539    2.3427   -0.7644 H   0  0  0  0  0  0  0  0  0  0  0  0
    1.2923   -1.4595    0.7637 H   0  0  0  0  0  0  0  0  0  0  0  0
   -1.0893   -2.3018    0.6640 H   0  0  0  0  0  0  0  0  0  0  0  0
   -5.3549    2.6982   -0.4770 S   0  0  0  0  0  0  0  0  0  0  0  0
   -4.1646    2.9719   -1.5104 O   0  0  0  0  0  0  0  0  0  0  0  0
   -6.5429    3.2918   -1.0545 O   0  0  0  0  0  0  0  0  0  0  0  0
   -5.3034    1.3221   -0.0162 O   0  0  0  0  0  0  0  0  0  0  0  0
   -4.9130    3.5881    0.8150 O   0  0  0  0  0  0  0  0  0  0  0  0
   -5.2059    4.5013    0.6545 H   0  0  0  0  0  0  0  0  0  0  0  0
  1 11  2  0  0  0  0
  2  1  1  0  0  0  0
  3  2  1  0  0  0  0
  4  5  2  0  0  0  0
  4  1  1  0  0  0  0
  5  6  1  0  0  0  0
  6  7  1  0  0  0  0
  6 10  2  0  0  0  0
  7  9  2  0  0  0  0
  8  7  2  0  0  0  0
 10 14  1  0  0  0  0
 11 10  1  0  0  0  0
 11 15  1  0  0  0  0
 13  5  1  0  0  0  0
 16 19  2  0  0  0  0
 16 20  1  0  0  0  0
 17 12  1  0  0  0  0
 17 16  1  0  0  0  0
 18 16  2  0  0  0  0
 21 20  1  0  0  0  0
M  RAD  3   2   2   3   3   4   2
M  END
