Coordinates from ORCA-job 4-NO2PhN2+~HSO4-_B3LYPG-6-31G_dp-CH-Scan-d09-49-n800
 OpenBabel11261919243D

 21 20  0  0  0  0  0  0  0  0999 V2000
   -1.8263   -0.3620   -0.1370 C   0  0  0  0  0  0  0  0  0  0  0  0
   -3.1355   -0.8497   -0.2043 N   0  0  0  0  0  0  0  0  0  0  0  0
   -4.1905   -1.2011   -0.2740 N   0  0  0  0  0  0  0  0  0  0  0  0
   -1.6780    0.9654   -0.5604 C   0  0  0  0  0  0  0  0  0  0  0  0
   -0.3192    1.3710   -0.4664 C   0  0  0  0  0  0  0  0  0  0  0  0
    0.6730    0.5148   -0.0108 C   0  0  0  0  0  0  0  0  0  0  0  0
    2.0755    1.0040    0.0595 N   0  0  0  0  0  0  0  0  0  0  0  0
    2.2927    2.1576   -0.2962 O   0  0  0  0  0  0  0  0  0  0  0  0
    2.9268    0.2174    0.4710 O   0  0  0  0  0  0  0  0  0  0  0  0
    0.4373   -0.8124    0.3982 C   0  0  0  0  0  0  0  0  0  0  0  0
   -0.8552   -1.2819    0.3379 C   0  0  0  0  0  0  0  0  0  0  0  0
   -3.2798    2.2806   -1.2088 H   0  0  0  0  0  0  0  0  0  0  0  0
   -0.0250    2.3749   -0.7544 H   0  0  0  0  0  0  0  0  0  0  0  0
    1.2596   -1.4240    0.7442 H   0  0  0  0  0  0  0  0  0  0  0  0
   -1.1115   -2.2932    0.6377 H   0  0  0  0  0  0  0  0  0  0  0  0
   -5.2609    2.6681   -0.4680 S   0  0  0  0  0  0  0  0  0  0  0  0
   -4.0440    2.8691   -1.4763 O   0  0  0  0  0  0  0  0  0  0  0  0
   -6.4188    3.2903   -1.0775 O   0  0  0  0  0  0  0  0  0  0  0  0
   -5.2747    1.3017    0.0278 O   0  0  0  0  0  0  0  0  0  0  0  0
   -4.8154    3.5703    0.8164 O   0  0  0  0  0  0  0  0  0  0  0  0
   -5.0770    4.4880    0.6302 H   0  0  0  0  0  0  0  0  0  0  0  0
  1 11  2  0  0  0  0
  2  1  1  0  0  0  0
  3  2  1  0  0  0  0
  4  5  2  0  0  0  0
  4  1  1  0  0  0  0
  5  6  1  0  0  0  0
  6  7  1  0  0  0  0
  6 10  2  0  0  0  0
  7  9  2  0  0  0  0
  8  7  2  0  0  0  0
 10 14  1  0  0  0  0
 11 10  1  0  0  0  0
 11 15  1  0  0  0  0
 13  5  1  0  0  0  0
 16 19  2  0  0  0  0
 16 20  1  0  0  0  0
 17 12  1  0  0  0  0
 17 16  1  0  0  0  0
 18 16  2  0  0  0  0
 21 20  1  0  0  0  0
M  RAD  3   2   2   3   3   4   2
M  END
