Coordinates from ORCA-job 4-NO2PhN2+~HSO4-_B3LYPG-6-31G_dp-CH-Scan-d09-49-n800
 OpenBabel11261919243D

 21 20  0  0  0  0  0  0  0  0999 V2000
   -1.5686   -0.4332   -0.2807 C   0  0  0  0  0  0  0  0  0  0  0  0
   -2.8999   -0.8502   -0.4638 N   0  0  0  0  0  0  0  0  0  0  0  0
   -3.9642   -1.1255   -0.6560 N   0  0  0  0  0  0  0  0  0  0  0  0
   -1.2978    0.7758   -0.9231 C   0  0  0  0  0  0  0  0  0  0  0  0
    0.0669    1.1349   -0.7063 C   0  0  0  0  0  0  0  0  0  0  0  0
    0.9268    0.3488    0.0461 C   0  0  0  0  0  0  0  0  0  0  0  0
    2.3345    0.7879    0.2357 N   0  0  0  0  0  0  0  0  0  0  0  0
    2.6787    1.8430   -0.2888 O   0  0  0  0  0  0  0  0  0  0  0  0
    3.0716    0.0604    0.9010 O   0  0  0  0  0  0  0  0  0  0  0  0
    0.5517   -0.8671    0.6590 C   0  0  0  0  0  0  0  0  0  0  0  0
   -0.7470   -1.2910    0.4975 C   0  0  0  0  0  0  0  0  0  0  0  0
   -4.2465    3.1229   -1.9407 H   0  0  0  0  0  0  0  0  0  0  0  0
    0.4693    2.0499   -1.1314 H   0  0  0  0  0  0  0  0  0  0  0  0
    1.2793   -1.4288    1.2291 H   0  0  0  0  0  0  0  0  0  0  0  0
   -1.1089   -2.2166    0.9355 H   0  0  0  0  0  0  0  0  0  0  0  0
   -5.6673    2.8011   -0.3678 S   0  0  0  0  0  0  0  0  0  0  0  0
   -5.1138    3.5039   -1.7179 O   0  0  0  0  0  0  0  0  0  0  0  0
   -7.0630    3.1705   -0.2841 O   0  0  0  0  0  0  0  0  0  0  0  0
   -5.1882    1.4359   -0.3079 O   0  0  0  0  0  0  0  0  0  0  0  0
   -4.8455    3.5969    0.7860 O   0  0  0  0  0  0  0  0  0  0  0  0
   -5.3149    4.4293    0.9677 H   0  0  0  0  0  0  0  0  0  0  0  0
  1 11  2  0  0  0  0
  2  1  1  0  0  0  0
  3  2  1  0  0  0  0
  4  5  2  0  0  0  0
  4  1  1  0  0  0  0
  5  6  1  0  0  0  0
  6  7  1  0  0  0  0
  6 10  2  0  0  0  0
  7  9  2  0  0  0  0
  8  7  2  0  0  0  0
 10 14  1  0  0  0  0
 11 10  1  0  0  0  0
 11 15  1  0  0  0  0
 12 17  1  0  0  0  0
 13  5  1  0  0  0  0
 16 19  2  0  0  0  0
 16 18  2  0  0  0  0
 16 20  1  0  0  0  0
 17 16  1  0  0  0  0
 20 21  1  0  0  0  0
M  RAD  3   2   2   3   3   4   2
M  END
