Coordinates from ORCA-job 4-NO2PhN2+~HSO4-_B3LYPG-6-31G_dp-CH-Scan-d09-49-n800
 OpenBabel11261919243D

 21 20  0  0  0  0  0  0  0  0999 V2000
   -1.6428   -0.5135   -1.0475 C   0  0  0  0  0  0  0  0  0  0  0  0
   -2.8421   -1.1260   -1.4655 N   0  0  0  0  0  0  0  0  0  0  0  0
   -3.7436   -1.6380   -1.8770 N   0  0  0  0  0  0  0  0  0  0  0  0
   -0.6347   -0.6542   -1.9983 C   0  0  0  0  0  0  0  0  0  0  0  0
    0.5465    0.0134   -1.5439 C   0  0  0  0  0  0  0  0  0  0  0  0
    0.5858    0.7043   -0.3432 C   0  0  0  0  0  0  0  0  0  0  0  0
    1.8315    1.4133    0.0511 N   0  0  0  0  0  0  0  0  0  0  0  0
    2.7898    1.3519   -0.7121 O   0  0  0  0  0  0  0  0  0  0  0  0
    1.8226    2.0200    1.1231 O   0  0  0  0  0  0  0  0  0  0  0  0
   -0.4971    0.7703    0.5652 C   0  0  0  0  0  0  0  0  0  0  0  0
   -1.6666    0.1302    0.2193 C   0  0  0  0  0  0  0  0  0  0  0  0
   -2.8977    2.7714    0.0420 H   0  0  0  0  0  0  0  0  0  0  0  0
    1.4511   -0.0008   -2.1456 H   0  0  0  0  0  0  0  0  0  0  0  0
   -0.3739    1.2906    1.5059 H   0  0  0  0  0  0  0  0  0  0  0  0
   -2.5319    0.1033    0.8742 H   0  0  0  0  0  0  0  0  0  0  0  0
   -4.9793    2.2850    0.2271 S   0  0  0  0  0  0  0  0  0  0  0  0
   -3.7194    3.2925    0.0988 O   0  0  0  0  0  0  0  0  0  0  0  0
   -6.1538    3.0833   -0.0336 O   0  0  0  0  0  0  0  0  0  0  0  0
   -4.6690    1.0475   -0.4631 O   0  0  0  0  0  0  0  0  0  0  0  0
   -4.9351    1.9008    1.8065 O   0  0  0  0  0  0  0  0  0  0  0  0
   -5.3871    2.6035    2.3053 H   0  0  0  0  0  0  0  0  0  0  0  0
  1 11  2  0  0  0  0
  2  1  1  0  0  0  0
  3  2  1  0  0  0  0
  4  5  2  0  0  0  0
  4  1  1  0  0  0  0
  5  6  1  0  0  0  0
  6  7  1  0  0  0  0
  6 10  2  0  0  0  0
  7  9  2  0  0  0  0
  8  7  2  0  0  0  0
 10 14  1  0  0  0  0
 11 10  1  0  0  0  0
 11 15  1  0  0  0  0
 12 17  1  0  0  0  0
 13  5  1  0  0  0  0
 16 20  1  0  0  0  0
 17 16  1  0  0  0  0
 18 16  2  0  0  0  0
 19 16  2  0  0  0  0
 20 21  1  0  0  0  0
M  RAD  3   2   2   3   3   4   2
M  END
