Coordinates from ORCA-job 4-NO2PhN2+~HSO4-_B3LYPG-6-31G_dp-CH-Scan-d09-49-n800
 OpenBabel11261919243D

 21 20  0  0  0  0  0  0  0  0999 V2000
   -1.6434   -0.5139   -1.0473 C   0  0  0  0  0  0  0  0  0  0  0  0
   -2.8425   -1.1267   -1.4659 N   0  0  0  0  0  0  0  0  0  0  0  0
   -3.7436   -1.6388   -1.8780 N   0  0  0  0  0  0  0  0  0  0  0  0
   -0.6353   -0.6536   -1.9984 C   0  0  0  0  0  0  0  0  0  0  0  0
    0.5456    0.0144   -1.5438 C   0  0  0  0  0  0  0  0  0  0  0  0
    0.5845    0.7051   -0.3430 C   0  0  0  0  0  0  0  0  0  0  0  0
    1.8297    1.4150    0.0514 N   0  0  0  0  0  0  0  0  0  0  0  0
    2.7879    1.3546   -0.7121 O   0  0  0  0  0  0  0  0  0  0  0  0
    1.8207    2.0208    1.1238 O   0  0  0  0  0  0  0  0  0  0  0  0
   -0.4983    0.7700    0.5657 C   0  0  0  0  0  0  0  0  0  0  0  0
   -1.6674    0.1291    0.2199 C   0  0  0  0  0  0  0  0  0  0  0  0
   -2.8953    2.7676    0.0413 H   0  0  0  0  0  0  0  0  0  0  0  0
    1.4502    0.0009   -2.1456 H   0  0  0  0  0  0  0  0  0  0  0  0
   -0.3752    1.2899    1.5067 H   0  0  0  0  0  0  0  0  0  0  0  0
   -2.5325    0.1012    0.8750 H   0  0  0  0  0  0  0  0  0  0  0  0
   -4.9777    2.2849    0.2268 S   0  0  0  0  0  0  0  0  0  0  0  0
   -3.7161    3.2902    0.0974 O   0  0  0  0  0  0  0  0  0  0  0  0
   -6.1509    3.0853   -0.0336 O   0  0  0  0  0  0  0  0  0  0  0  0
   -4.6702    1.0464   -0.4630 O   0  0  0  0  0  0  0  0  0  0  0  0
   -4.9332    1.9014    1.8064 O   0  0  0  0  0  0  0  0  0  0  0  0
   -5.3838    2.6052    2.3050 H   0  0  0  0  0  0  0  0  0  0  0  0
  1 11  2  0  0  0  0
  2  1  1  0  0  0  0
  3  2  1  0  0  0  0
  4  5  2  0  0  0  0
  4  1  1  0  0  0  0
  5  6  1  0  0  0  0
  6  7  1  0  0  0  0
  6 10  2  0  0  0  0
  7  9  2  0  0  0  0
  8  7  2  0  0  0  0
 10 14  1  0  0  0  0
 11 10  1  0  0  0  0
 11 15  1  0  0  0  0
 12 17  1  0  0  0  0
 13  5  1  0  0  0  0
 16 20  1  0  0  0  0
 17 16  1  0  0  0  0
 18 16  2  0  0  0  0
 19 16  2  0  0  0  0
 20 21  1  0  0  0  0
M  RAD  3   2   2   3   3   4   2
M  END
