Coordinates from ORCA-job 4-NO2PhN2+~HSO4-_B3LYPG-6-31G_dp-CH-Scan-d09-49-n800
 OpenBabel11261919243D

 21 20  0  0  0  0  0  0  0  0999 V2000
   -1.9298   -0.3263   -0.1765 C   0  0  0  0  0  0  0  0  0  0  0  0
   -3.2303   -0.8250   -0.2579 N   0  0  0  0  0  0  0  0  0  0  0  0
   -4.2798   -1.1875   -0.3326 N   0  0  0  0  0  0  0  0  0  0  0  0
   -1.7678    1.0165   -0.5455 C   0  0  0  0  0  0  0  0  0  0  0  0
   -0.4218    1.4349   -0.4461 C   0  0  0  0  0  0  0  0  0  0  0  0
    0.5769    0.5661   -0.0274 C   0  0  0  0  0  0  0  0  0  0  0  0
    1.9765    1.0616    0.0547 N   0  0  0  0  0  0  0  0  0  0  0  0
    2.1819    2.2279   -0.2618 O   0  0  0  0  0  0  0  0  0  0  0  0
    2.8317    0.2650    0.4353 O   0  0  0  0  0  0  0  0  0  0  0  0
    0.3467   -0.7735    0.3299 C   0  0  0  0  0  0  0  0  0  0  0  0
   -0.9453   -1.2483    0.2561 C   0  0  0  0  0  0  0  0  0  0  0  0
   -2.9339    1.9801   -0.9688 H   0  0  0  0  0  0  0  0  0  0  0  0
   -0.1457    2.4530   -0.6978 H   0  0  0  0  0  0  0  0  0  0  0  0
    1.1719   -1.3954    0.6499 H   0  0  0  0  0  0  0  0  0  0  0  0
   -1.1934   -2.2713    0.5190 H   0  0  0  0  0  0  0  0  0  0  0  0
   -5.0155    2.5867   -0.3991 S   0  0  0  0  0  0  0  0  0  0  0  0
   -3.7453    2.6895   -1.2919 O   0  0  0  0  0  0  0  0  0  0  0  0
   -6.1895    2.9938   -1.1567 O   0  0  0  0  0  0  0  0  0  0  0  0
   -5.0040    1.3227    0.3394 O   0  0  0  0  0  0  0  0  0  0  0  0
   -4.7693    3.7285    0.7528 O   0  0  0  0  0  0  0  0  0  0  0  0
   -5.1606    4.5500    0.4138 H   0  0  0  0  0  0  0  0  0  0  0  0
  1 11  2  0  0  0  0
  2  1  1  0  0  0  0
  3  2  1  0  0  0  0
  4  5  2  0  0  0  0
  4  1  1  0  0  0  0
  5  6  1  0  0  0  0
  6  7  1  0  0  0  0
  6 10  2  0  0  0  0
  7  9  2  0  0  0  0
  8  7  2  0  0  0  0
 10 14  1  0  0  0  0
 11 10  1  0  0  0  0
 11 15  1  0  0  0  0
 13  5  1  0  0  0  0
 16 19  2  0  0  0  0
 16 20  1  0  0  0  0
 17 12  1  0  0  0  0
 17 16  1  0  0  0  0
 18 16  2  0  0  0  0
 21 20  1  0  0  0  0
M  RAD  3   2   2   3   3   4   2
M  END
