Coordinates from ORCA-job 4-NO2PhN2+~HSO4-_B3LYPG-6-31G_dp-CH-Scan-d09-49-n800
 OpenBabel11261919243D

 21 20  0  0  0  0  0  0  0  0999 V2000
   -1.6849   -0.4967   -0.8060 C   0  0  0  0  0  0  0  0  0  0  0  0
   -2.8880   -1.0530   -1.2765 N   0  0  0  0  0  0  0  0  0  0  0  0
   -3.8233   -1.4574   -1.7319 N   0  0  0  0  0  0  0  0  0  0  0  0
   -1.0805    0.3071   -1.7717 C   0  0  0  0  0  0  0  0  0  0  0  0
    0.1340    0.8464   -1.2493 C   0  0  0  0  0  0  0  0  0  0  0  0
    0.5693    0.5682    0.0383 C   0  0  0  0  0  0  0  0  0  0  0  0
    1.8372    1.1738    0.5235 N   0  0  0  0  0  0  0  0  0  0  0  0
    2.4387    1.9267   -0.2372 O   0  0  0  0  0  0  0  0  0  0  0  0
    2.2073    0.8837    1.6614 O   0  0  0  0  0  0  0  0  0  0  0  0
   -0.1230   -0.2676    0.9430 C   0  0  0  0  0  0  0  0  0  0  0  0
   -1.3031   -0.8330    0.5184 C   0  0  0  0  0  0  0  0  0  0  0  0
   -4.6937    3.0066   -1.9677 H   0  0  0  0  0  0  0  0  0  0  0  0
    0.7533    1.4996   -1.8579 H   0  0  0  0  0  0  0  0  0  0  0  0
    0.2805   -0.4407    1.9312 H   0  0  0  0  0  0  0  0  0  0  0  0
   -1.8944   -1.4830    1.1568 H   0  0  0  0  0  0  0  0  0  0  0  0
   -4.9875    2.4551    0.0830 S   0  0  0  0  0  0  0  0  0  0  0  0
   -5.2479    3.3483   -1.2445 O   0  0  0  0  0  0  0  0  0  0  0  0
   -6.0630    2.7834    0.9907 O   0  0  0  0  0  0  0  0  0  0  0  0
   -4.6515    1.1039   -0.3188 O   0  0  0  0  0  0  0  0  0  0  0  0
   -3.6047    3.0881    0.6480 O   0  0  0  0  0  0  0  0  0  0  0  0
   -3.8214    3.8893    1.1558 H   0  0  0  0  0  0  0  0  0  0  0  0
  1 11  2  0  0  0  0
  2  1  1  0  0  0  0
  3  2  1  0  0  0  0
  4  5  2  0  0  0  0
  4  1  1  0  0  0  0
  5  6  1  0  0  0  0
  6  7  1  0  0  0  0
  6 10  2  0  0  0  0
  7  9  2  0  0  0  0
  8  7  2  0  0  0  0
 10 14  1  0  0  0  0
 11 10  1  0  0  0  0
 11 15  1  0  0  0  0
 12 17  1  0  0  0  0
 13  5  1  0  0  0  0
 16 20  1  0  0  0  0
 16 18  2  0  0  0  0
 17 16  1  0  0  0  0
 19 16  2  0  0  0  0
 20 21  1  0  0  0  0
M  RAD  3   2   2   3   3   4   2
M  END
