Coordinates from ORCA-job 4-NO2PhN2+~HSO4-_B3LYPG-6-31G_dp-CH-Scan-d09-49-n800
 OpenBabel11261919243D

 21 20  0  0  0  0  0  0  0  0999 V2000
   -1.6066   -0.4266   -0.2426 C   0  0  0  0  0  0  0  0  0  0  0  0
   -2.9364   -0.8558   -0.3990 N   0  0  0  0  0  0  0  0  0  0  0  0
   -4.0009   -1.1452   -0.5660 N   0  0  0  0  0  0  0  0  0  0  0  0
   -1.3669    0.8113   -0.8427 C   0  0  0  0  0  0  0  0  0  0  0  0
   -0.0001    1.1768   -0.6540 C   0  0  0  0  0  0  0  0  0  0  0  0
    0.8915    0.3702    0.0373 C   0  0  0  0  0  0  0  0  0  0  0  0
    2.3003    0.8172    0.1995 N   0  0  0  0  0  0  0  0  0  0  0  0
    2.6155    1.8981   -0.2893 O   0  0  0  0  0  0  0  0  0  0  0  0
    3.0641    0.0742    0.8155 O   0  0  0  0  0  0  0  0  0  0  0  0
    0.5484   -0.8735    0.6114 C   0  0  0  0  0  0  0  0  0  0  0  0
   -0.7505   -1.3048    0.4736 C   0  0  0  0  0  0  0  0  0  0  0  0
   -4.0596    3.0271   -1.8453 H   0  0  0  0  0  0  0  0  0  0  0  0
    0.3791    2.1130   -1.0530 H   0  0  0  0  0  0  0  0  0  0  0  0
    1.2992   -1.4497    1.1349 H   0  0  0  0  0  0  0  0  0  0  0  0
   -1.0890   -2.2511    0.8851 H   0  0  0  0  0  0  0  0  0  0  0  0
   -5.6215    2.7906   -0.3967 S   0  0  0  0  0  0  0  0  0  0  0  0
   -4.9332    3.4355   -1.7115 O   0  0  0  0  0  0  0  0  0  0  0  0
   -7.0021    3.2199   -0.4336 O   0  0  0  0  0  0  0  0  0  0  0  0
   -5.2107    1.4079   -0.2668 O   0  0  0  0  0  0  0  0  0  0  0  0
   -4.8605    3.5793    0.8035 O   0  0  0  0  0  0  0  0  0  0  0  0
   -5.3069    4.4344    0.9285 H   0  0  0  0  0  0  0  0  0  0  0  0
  1 11  2  0  0  0  0
  2  1  1  0  0  0  0
  3  2  1  0  0  0  0
  4  5  2  0  0  0  0
  4  1  1  0  0  0  0
  5  6  1  0  0  0  0
  6  7  1  0  0  0  0
  6 10  2  0  0  0  0
  7  9  2  0  0  0  0
  8  7  2  0  0  0  0
 10 14  1  0  0  0  0
 11 10  1  0  0  0  0
 11 15  1  0  0  0  0
 12 17  1  0  0  0  0
 13  5  1  0  0  0  0
 16 19  2  0  0  0  0
 16 20  1  0  0  0  0
 17 16  1  0  0  0  0
 18 16  2  0  0  0  0
 20 21  1  0  0  0  0
M  RAD  3   2   2   3   3   4   2
M  END
