Coordinates from ORCA-job 4-NO2PhN2+~HSO4-_B3LYPG-6-31G_dp-CH-Scan-d09-49-n800
 OpenBabel11261919243D

 21 20  0  0  0  0  0  0  0  0999 V2000
   -1.5847   -0.3877   -0.1009 C   0  0  0  0  0  0  0  0  0  0  0  0
   -2.9318   -0.7812   -0.1658 N   0  0  0  0  0  0  0  0  0  0  0  0
   -4.0136   -1.0433   -0.2451 N   0  0  0  0  0  0  0  0  0  0  0  0
   -1.3672    0.8988   -0.6015 C   0  0  0  0  0  0  0  0  0  0  0  0
    0.0198    1.2207   -0.5088 C   0  0  0  0  0  0  0  0  0  0  0  0
    0.9509    0.3347    0.0126 C   0  0  0  0  0  0  0  0  0  0  0  0
    2.3804    0.7388    0.0788 N   0  0  0  0  0  0  0  0  0  0  0  0
    2.6763    1.8567   -0.3324 O   0  0  0  0  0  0  0  0  0  0  0  0
    3.1792   -0.0764    0.5392 O   0  0  0  0  0  0  0  0  0  0  0  0
    0.6300   -0.9524    0.4959 C   0  0  0  0  0  0  0  0  0  0  0  0
   -0.6873   -1.3449    0.4439 C   0  0  0  0  0  0  0  0  0  0  0  0
   -3.8615    3.0169   -1.5720 H   0  0  0  0  0  0  0  0  0  0  0  0
    0.3847    2.1848   -0.8505 H   0  0  0  0  0  0  0  0  0  0  0  0
    1.4104   -1.5900    0.8884 H   0  0  0  0  0  0  0  0  0  0  0  0
   -1.0108   -2.3197    0.7965 H   0  0  0  0  0  0  0  0  0  0  0  0
   -5.7130    2.8199   -0.5129 S   0  0  0  0  0  0  0  0  0  0  0  0
   -4.7390    3.4341   -1.6475 O   0  0  0  0  0  0  0  0  0  0  0  0
   -7.0504    3.2263   -0.8844 O   0  0  0  0  0  0  0  0  0  0  0  0
   -5.3332    1.4483   -0.2447 O   0  0  0  0  0  0  0  0  0  0  0  0
   -5.2618    3.6546    0.8076 O   0  0  0  0  0  0  0  0  0  0  0  0
   -5.7243    4.5100    0.7925 H   0  0  0  0  0  0  0  0  0  0  0  0
  1 11  2  0  0  0  0
  2  1  1  0  0  0  0
  3  2  1  0  0  0  0
  4  5  2  0  0  0  0
  4  1  1  0  0  0  0
  5  6  1  0  0  0  0
  6  7  1  0  0  0  0
  6 10  2  0  0  0  0
  7  9  2  0  0  0  0
  8  7  2  0  0  0  0
 10 14  1  0  0  0  0
 11 10  1  0  0  0  0
 11 15  1  0  0  0  0
 13  5  1  0  0  0  0
 16 19  2  0  0  0  0
 16 20  1  0  0  0  0
 17 12  1  0  0  0  0
 17 16  1  0  0  0  0
 18 16  2  0  0  0  0
 21 20  1  0  0  0  0
M  RAD  3   2   2   3   3   4   2
M  END
