Coordinates from ORCA-job 4-NO2PhN2+~HSO4-_B3LYPG-6-31G_dp-CH-Scan-d09-49-n800
 OpenBabel11261919243D

 21 20  0  0  0  0  0  0  0  0999 V2000
   -1.7565   -0.3683   -0.1210 C   0  0  0  0  0  0  0  0  0  0  0  0
   -3.0769   -0.8300   -0.1854 N   0  0  0  0  0  0  0  0  0  0  0  0
   -4.1395   -1.1595   -0.2562 N   0  0  0  0  0  0  0  0  0  0  0  0
   -1.5900    0.9501   -0.5620 C   0  0  0  0  0  0  0  0  0  0  0  0
   -0.2219    1.3313   -0.4720 C   0  0  0  0  0  0  0  0  0  0  0  0
    0.7547    0.4635   -0.0053 C   0  0  0  0  0  0  0  0  0  0  0  0
    2.1660    0.9276    0.0593 N   0  0  0  0  0  0  0  0  0  0  0  0
    2.4053    2.0725   -0.3107 O   0  0  0  0  0  0  0  0  0  0  0  0
    3.0035    0.1312    0.4810 O   0  0  0  0  0  0  0  0  0  0  0  0
    0.4958   -0.8550    0.4214 C   0  0  0  0  0  0  0  0  0  0  0  0
   -0.8045   -1.3021    0.3671 C   0  0  0  0  0  0  0  0  0  0  0  0
   -3.4322    2.4809   -1.3023 H   0  0  0  0  0  0  0  0  0  0  0  0
    0.0924    2.3257   -0.7724 H   0  0  0  0  0  0  0  0  0  0  0  0
    1.3076   -1.4759    0.7753 H   0  0  0  0  0  0  0  0  0  0  0  0
   -1.0791   -2.3049    0.6797 H   0  0  0  0  0  0  0  0  0  0  0  0
   -5.3992    2.7132   -0.4829 S   0  0  0  0  0  0  0  0  0  0  0  0
   -4.2226    3.0264   -1.5250 O   0  0  0  0  0  0  0  0  0  0  0  0
   -6.6020    3.2924   -1.0433 O   0  0  0  0  0  0  0  0  0  0  0  0
   -5.3148    1.3323   -0.0439 O   0  0  0  0  0  0  0  0  0  0  0  0
   -4.9613    3.5937    0.8160 O   0  0  0  0  0  0  0  0  0  0  0  0
   -5.2714    4.5038    0.6713 H   0  0  0  0  0  0  0  0  0  0  0  0
  1 11  2  0  0  0  0
  2  1  1  0  0  0  0
  3  2  1  0  0  0  0
  4  5  2  0  0  0  0
  4  1  1  0  0  0  0
  5  6  1  0  0  0  0
  6  7  1  0  0  0  0
  6 10  2  0  0  0  0
  7  9  2  0  0  0  0
  8  7  2  0  0  0  0
 10 14  1  0  0  0  0
 11 10  1  0  0  0  0
 11 15  1  0  0  0  0
 13  5  1  0  0  0  0
 16 19  2  0  0  0  0
 16 20  1  0  0  0  0
 17 12  1  0  0  0  0
 17 16  1  0  0  0  0
 18 16  2  0  0  0  0
 21 20  1  0  0  0  0
M  RAD  3   2   2   3   3   4   2
M  END
