Coordinates from ORCA-job 4-NO2PhN2+~HSO4-_B3LYPG-6-31G_dp-CH-Scan-d09-49-n800
 OpenBabel11261919243D

 21 20  0  0  0  0  0  0  0  0999 V2000
   -2.0214    0.0594   -0.3500 C   0  0  0  0  0  0  0  0  0  0  0  0
   -3.3721   -0.2085   -0.5448 N   0  0  0  0  0  0  0  0  0  0  0  0
   -4.4421   -0.4567   -0.7701 N   0  0  0  0  0  0  0  0  0  0  0  0
   -1.5189    1.3262   -0.6879 C   0  0  0  0  0  0  0  0  0  0  0  0
   -0.1525    1.5280   -0.5164 C   0  0  0  0  0  0  0  0  0  0  0  0
    0.6321    0.4960   -0.0075 C   0  0  0  0  0  0  0  0  0  0  0  0
    2.0840    0.7339    0.1808 N   0  0  0  0  0  0  0  0  0  0  0  0
    2.5171    1.8356   -0.1376 O   0  0  0  0  0  0  0  0  0  0  0  0
    2.7460   -0.1923    0.6404 O   0  0  0  0  0  0  0  0  0  0  0  0
    0.1212   -0.7562    0.3353 C   0  0  0  0  0  0  0  0  0  0  0  0
   -1.2342   -0.9888    0.1541 C   0  0  0  0  0  0  0  0  0  0  0  0
   -2.1522    2.0767   -1.0460 H   0  0  0  0  0  0  0  0  0  0  0  0
    0.3030    2.4796   -0.7595 H   0  0  0  0  0  0  0  0  0  0  0  0
    0.7826   -1.5177    0.7271 H   0  0  0  0  0  0  0  0  0  0  0  0
   -1.6797   -1.9458    0.3997 H   0  0  0  0  0  0  0  0  0  0  0  0
   -4.7457    2.5529   -0.3242 S   0  0  0  0  0  0  0  0  0  0  0  0
   -4.0146    3.2193   -1.4117 O   0  0  0  0  0  0  0  0  0  0  0  0
   -5.7098    1.4895   -0.7623 O   0  0  0  0  0  0  0  0  0  0  0  0
   -3.8715    2.0409    0.7669 O   0  0  0  0  0  0  0  0  0  0  0  0
   -5.6726    3.7461    0.3188 O   0  0  0  0  0  0  0  0  0  0  0  0
   -6.2454    3.3308    0.9835 H   0  0  0  0  0  0  0  0  0  0  0  0
  1 11  2  0  0  0  0
  2  1  1  0  0  0  0
  3  2  1  0  0  0  0
  4  5  2  0  0  0  0
  4  1  1  0  0  0  0
  5  6  1  0  0  0  0
  6  7  1  0  0  0  0
  6 10  2  0  0  0  0
  7  9  2  0  0  0  0
  8  7  2  0  0  0  0
 10 14  1  0  0  0  0
 11 10  1  0  0  0  0
 11 15  1  0  0  0  0
 12  4  1  0  0  0  0
 13  5  1  0  0  0  0
 16 20  1  0  0  0  0
 16 19  1  0  0  0  0
 17 16  2  0  0  0  0
 18 16  2  0  0  0  0
 20 21  1  0  0  0  0
M  RAD  3   2   2   3   3  19   2
M  END
