Coordinates from ORCA-job 4-NO2PhN2+~HSO4-_B3LYPG-6-31G_dp-CH-Scan-d09-49-n800
 OpenBabel11261919243D

 21 20  0  0  0  0  0  0  0  0999 V2000
   -1.8055   -0.3640   -0.1335 C   0  0  0  0  0  0  0  0  0  0  0  0
   -3.1180   -0.8439   -0.2008 N   0  0  0  0  0  0  0  0  0  0  0  0
   -4.1751   -1.1893   -0.2714 N   0  0  0  0  0  0  0  0  0  0  0  0
   -1.6517    0.9609   -0.5614 C   0  0  0  0  0  0  0  0  0  0  0  0
   -0.2902    1.3596   -0.4678 C   0  0  0  0  0  0  0  0  0  0  0  0
    0.6972    0.4999   -0.0088 C   0  0  0  0  0  0  0  0  0  0  0  0
    2.1023    0.9818    0.0607 N   0  0  0  0  0  0  0  0  0  0  0  0
    2.3261    2.1332   -0.2982 O   0  0  0  0  0  0  0  0  0  0  0  0
    2.9493    0.1923    0.4759 O   0  0  0  0  0  0  0  0  0  0  0  0
    0.4546   -0.8251    0.4048 C   0  0  0  0  0  0  0  0  0  0  0  0
   -0.8401   -1.2882    0.3454 C   0  0  0  0  0  0  0  0  0  0  0  0
   -3.3274    2.3375   -1.2383 H   0  0  0  0  0  0  0  0  0  0  0  0
    0.0099    2.3609   -0.7589 H   0  0  0  0  0  0  0  0  0  0  0  0
    1.2737   -1.4395    0.7533 H   0  0  0  0  0  0  0  0  0  0  0  0
   -1.1018   -2.2972    0.6485 H   0  0  0  0  0  0  0  0  0  0  0  0
   -5.3025    2.6811   -0.4701 S   0  0  0  0  0  0  0  0  0  0  0  0
   -4.0989    2.9121   -1.4928 O   0  0  0  0  0  0  0  0  0  0  0  0
   -6.4748    3.2901   -1.0645 O   0  0  0  0  0  0  0  0  0  0  0  0
   -5.2867    1.3108    0.0129 O   0  0  0  0  0  0  0  0  0  0  0  0
   -4.8559    3.5801    0.8151 O   0  0  0  0  0  0  0  0  0  0  0  0
   -5.1311    4.4958    0.6389 H   0  0  0  0  0  0  0  0  0  0  0  0
  1 11  2  0  0  0  0
  2  1  1  0  0  0  0
  3  2  1  0  0  0  0
  4  5  2  0  0  0  0
  4  1  1  0  0  0  0
  5  6  1  0  0  0  0
  6  7  1  0  0  0  0
  6 10  2  0  0  0  0
  7  9  2  0  0  0  0
  8  7  2  0  0  0  0
 10 14  1  0  0  0  0
 11 10  1  0  0  0  0
 11 15  1  0  0  0  0
 13  5  1  0  0  0  0
 16 19  2  0  0  0  0
 16 20  1  0  0  0  0
 17 12  1  0  0  0  0
 17 16  1  0  0  0  0
 18 16  2  0  0  0  0
 21 20  1  0  0  0  0
M  RAD  3   2   2   3   3   4   2
M  END
