Coordinates from ORCA-job 4-NO2PhN2+~HSO4-_B3LYPG-6-31G_dp-CH-Scan-d09-49-n800
 OpenBabel11261919243D

 21 20  0  0  0  0  0  0  0  0999 V2000
   -1.8518   -0.3593   -0.1440 C   0  0  0  0  0  0  0  0  0  0  0  0
   -3.1569   -0.8562   -0.2131 N   0  0  0  0  0  0  0  0  0  0  0  0
   -4.2093   -1.2146   -0.2841 N   0  0  0  0  0  0  0  0  0  0  0  0
   -1.7089    0.9710   -0.5611 C   0  0  0  0  0  0  0  0  0  0  0  0
   -0.3536    1.3847   -0.4656 C   0  0  0  0  0  0  0  0  0  0  0  0
    0.6437    0.5326   -0.0132 C   0  0  0  0  0  0  0  0  0  0  0  0
    2.0431    1.0303    0.0593 N   0  0  0  0  0  0  0  0  0  0  0  0
    2.2530    2.1863   -0.2924 O   0  0  0  0  0  0  0  0  0  0  0  0
    2.8987    0.2471    0.4680 O   0  0  0  0  0  0  0  0  0  0  0  0
    0.4155   -0.7973    0.3898 C   0  0  0  0  0  0  0  0  0  0  0  0
   -0.8744   -1.2741    0.3269 C   0  0  0  0  0  0  0  0  0  0  0  0
   -3.2199    2.2095   -1.1703 H   0  0  0  0  0  0  0  0  0  0  0  0
   -0.0665    2.3917   -0.7495 H   0  0  0  0  0  0  0  0  0  0  0  0
    1.2411   -1.4057    0.7336 H   0  0  0  0  0  0  0  0  0  0  0  0
   -1.1247   -2.2881    0.6223 H   0  0  0  0  0  0  0  0  0  0  0  0
   -5.2078    2.6511   -0.4612 S   0  0  0  0  0  0  0  0  0  0  0  0
   -3.9785    2.8145   -1.4535 O   0  0  0  0  0  0  0  0  0  0  0  0
   -6.3531    3.2783   -1.0907 O   0  0  0  0  0  0  0  0  0  0  0  0
   -5.2498    1.2936    0.0599 O   0  0  0  0  0  0  0  0  0  0  0  0
   -4.7672    3.5686    0.8157 O   0  0  0  0  0  0  0  0  0  0  0  0
   -5.0195    4.4850    0.6121 H   0  0  0  0  0  0  0  0  0  0  0  0
  1 11  2  0  0  0  0
  2  1  1  0  0  0  0
  3  2  1  0  0  0  0
  4  5  2  0  0  0  0
  4  1  1  0  0  0  0
  5  6  1  0  0  0  0
  6  7  1  0  0  0  0
  6 10  2  0  0  0  0
  7  9  2  0  0  0  0
  8  7  2  0  0  0  0
 10 14  1  0  0  0  0
 11 10  1  0  0  0  0
 11 15  1  0  0  0  0
 13  5  1  0  0  0  0
 16 19  2  0  0  0  0
 16 20  1  0  0  0  0
 17 12  1  0  0  0  0
 17 16  1  0  0  0  0
 18 16  2  0  0  0  0
 21 20  1  0  0  0  0
M  RAD  3   2   2   3   3   4   2
M  END
