Coordinates from ORCA-job 4-NO2PhN2+~HSO4-_B3LYPG-6-31G_dp-CH-Scan-d09-49-n800
 OpenBabel11261919243D

 21 20  0  0  0  0  0  0  0  0999 V2000
   -1.8044   -0.3640   -0.1332 C   0  0  0  0  0  0  0  0  0  0  0  0
   -3.1170   -0.8438   -0.2004 N   0  0  0  0  0  0  0  0  0  0  0  0
   -4.1743   -1.1887   -0.2710 N   0  0  0  0  0  0  0  0  0  0  0  0
   -1.6505    0.9608   -0.5616 C   0  0  0  0  0  0  0  0  0  0  0  0
   -0.2888    1.3589   -0.4679 C   0  0  0  0  0  0  0  0  0  0  0  0
    0.6984    0.4991   -0.0086 C   0  0  0  0  0  0  0  0  0  0  0  0
    2.1036    0.9806    0.0608 N   0  0  0  0  0  0  0  0  0  0  0  0
    2.3278    2.1317   -0.2990 O   0  0  0  0  0  0  0  0  0  0  0  0
    2.9505    0.1909    0.4757 O   0  0  0  0  0  0  0  0  0  0  0  0
    0.4555   -0.8257    0.4053 C   0  0  0  0  0  0  0  0  0  0  0  0
   -0.8394   -1.2884    0.3461 C   0  0  0  0  0  0  0  0  0  0  0  0
   -3.3293    2.3411   -1.2398 H   0  0  0  0  0  0  0  0  0  0  0  0
    0.0118    2.3600   -0.7593 H   0  0  0  0  0  0  0  0  0  0  0  0
    1.2744   -1.4402    0.7540 H   0  0  0  0  0  0  0  0  0  0  0  0
   -1.1014   -2.2972    0.6495 H   0  0  0  0  0  0  0  0  0  0  0  0
   -5.3047    2.6817   -0.4705 S   0  0  0  0  0  0  0  0  0  0  0  0
   -4.1014    2.9149   -1.4934 O   0  0  0  0  0  0  0  0  0  0  0  0
   -6.4775    3.2904   -1.0641 O   0  0  0  0  0  0  0  0  0  0  0  0
   -5.2875    1.3111    0.0110 O   0  0  0  0  0  0  0  0  0  0  0  0
   -4.8584    3.5800    0.8153 O   0  0  0  0  0  0  0  0  0  0  0  0
   -5.1341    4.4957    0.6399 H   0  0  0  0  0  0  0  0  0  0  0  0
  1 11  2  0  0  0  0
  2  1  1  0  0  0  0
  3  2  1  0  0  0  0
  4  5  2  0  0  0  0
  4  1  1  0  0  0  0
  5  6  1  0  0  0  0
  6  7  1  0  0  0  0
  6 10  2  0  0  0  0
  7  9  2  0  0  0  0
  8  7  2  0  0  0  0
 10 14  1  0  0  0  0
 11 10  1  0  0  0  0
 11 15  1  0  0  0  0
 13  5  1  0  0  0  0
 16 19  2  0  0  0  0
 16 20  1  0  0  0  0
 17 12  1  0  0  0  0
 17 16  1  0  0  0  0
 18 16  2  0  0  0  0
 21 20  1  0  0  0  0
M  RAD  3   2   2   3   3   4   2
M  END
