Coordinates from ORCA-job 4-NO2PhN2+~HSO4-_B3LYPG-6-31G_dp-CH-Scan-d09-49-n800
 OpenBabel11261919243D

 21 20  0  0  0  0  0  0  0  0999 V2000
   -1.7493   -0.3687   -0.1193 C   0  0  0  0  0  0  0  0  0  0  0  0
   -3.0709   -0.8277   -0.1832 N   0  0  0  0  0  0  0  0  0  0  0  0
   -4.1341   -1.1550   -0.2546 N   0  0  0  0  0  0  0  0  0  0  0  0
   -1.5806    0.9485   -0.5623 C   0  0  0  0  0  0  0  0  0  0  0  0
   -0.2115    1.3271   -0.4728 C   0  0  0  0  0  0  0  0  0  0  0  0
    0.7633    0.4581   -0.0048 C   0  0  0  0  0  0  0  0  0  0  0  0
    2.1755    0.9194    0.0591 N   0  0  0  0  0  0  0  0  0  0  0  0
    2.4172    2.0633   -0.3125 O   0  0  0  0  0  0  0  0  0  0  0  0
    3.0115    0.1220    0.4820 O   0  0  0  0  0  0  0  0  0  0  0  0
    0.5018   -0.8593    0.4240 C   0  0  0  0  0  0  0  0  0  0  0  0
   -0.7993   -1.3040    0.3703 C   0  0  0  0  0  0  0  0  0  0  0  0
   -3.4481    2.5019   -1.3116 H   0  0  0  0  0  0  0  0  0  0  0  0
    0.1048    2.3204   -0.7747 H   0  0  0  0  0  0  0  0  0  0  0  0
    1.3124   -1.4813    0.7788 H   0  0  0  0  0  0  0  0  0  0  0  0
   -1.0759   -2.3057    0.6845 H   0  0  0  0  0  0  0  0  0  0  0  0
   -5.4133    2.7179   -0.4847 S   0  0  0  0  0  0  0  0  0  0  0  0
   -4.2414    3.0434   -1.5295 O   0  0  0  0  0  0  0  0  0  0  0  0
   -6.6209    3.2920   -1.0400 O   0  0  0  0  0  0  0  0  0  0  0  0
   -5.3184    1.3359   -0.0520 O   0  0  0  0  0  0  0  0  0  0  0  0
   -4.9768    3.5959    0.8161 O   0  0  0  0  0  0  0  0  0  0  0  0
   -5.2925    4.5049    0.6760 H   0  0  0  0  0  0  0  0  0  0  0  0
  1 11  2  0  0  0  0
  2  1  1  0  0  0  0
  3  2  1  0  0  0  0
  4  5  2  0  0  0  0
  4  1  1  0  0  0  0
  5  6  1  0  0  0  0
  6  7  1  0  0  0  0
  6 10  2  0  0  0  0
  7  9  2  0  0  0  0
  8  7  2  0  0  0  0
 10 14  1  0  0  0  0
 11 10  1  0  0  0  0
 11 15  1  0  0  0  0
 13  5  1  0  0  0  0
 16 19  2  0  0  0  0
 16 20  1  0  0  0  0
 17 12  1  0  0  0  0
 17 16  1  0  0  0  0
 18 16  2  0  0  0  0
 21 20  1  0  0  0  0
M  RAD  3   2   2   3   3   4   2
M  END
