Coordinates from ORCA-job 4-NO2PhN2+~HSO4-_B3LYPG-6-31G_dp-CH-Scan-d09-49-n800
 OpenBabel11261919243D

 21 20  0  0  0  0  0  0  0  0999 V2000
   -1.6957   -0.5062   -0.7761 C   0  0  0  0  0  0  0  0  0  0  0  0
   -2.9022   -1.0663   -1.2327 N   0  0  0  0  0  0  0  0  0  0  0  0
   -3.8423   -1.4708   -1.6779 N   0  0  0  0  0  0  0  0  0  0  0  0
   -1.1373    0.3519   -1.7228 C   0  0  0  0  0  0  0  0  0  0  0  0
    0.0822    0.8926   -1.2140 C   0  0  0  0  0  0  0  0  0  0  0  0
    0.5612    0.5698    0.0473 C   0  0  0  0  0  0  0  0  0  0  0  0
    1.8302    1.1821    0.5212 N   0  0  0  0  0  0  0  0  0  0  0  0
    2.3890    1.9849   -0.2209 O   0  0  0  0  0  0  0  0  0  0  0  0
    2.2521    0.8353    1.6245 O   0  0  0  0  0  0  0  0  0  0  0  0
   -0.0855   -0.3198    0.9341 C   0  0  0  0  0  0  0  0  0  0  0  0
   -1.2659   -0.8921    0.5198 C   0  0  0  0  0  0  0  0  0  0  0  0
   -4.6462    2.9997   -1.9967 H   0  0  0  0  0  0  0  0  0  0  0  0
    0.6703    1.5834   -1.8119 H   0  0  0  0  0  0  0  0  0  0  0  0
    0.3517   -0.5273    1.9012 H   0  0  0  0  0  0  0  0  0  0  0  0
   -1.8228   -1.5836    1.1455 H   0  0  0  0  0  0  0  0  0  0  0  0
   -4.9889    2.4794    0.0552 S   0  0  0  0  0  0  0  0  0  0  0  0
   -5.2143    3.3543   -1.2906 O   0  0  0  0  0  0  0  0  0  0  0  0
   -6.0800    2.8317    0.9350 O   0  0  0  0  0  0  0  0  0  0  0  0
   -4.6572    1.1189   -0.3175 O   0  0  0  0  0  0  0  0  0  0  0  0
   -3.6124    3.1095    0.6388 O   0  0  0  0  0  0  0  0  0  0  0  0
   -3.8326    3.9217    1.1274 H   0  0  0  0  0  0  0  0  0  0  0  0
  1 11  2  0  0  0  0
  2  1  1  0  0  0  0
  3  2  1  0  0  0  0
  4  5  2  0  0  0  0
  4  1  1  0  0  0  0
  5  6  1  0  0  0  0
  6  7  1  0  0  0  0
  6 10  2  0  0  0  0
  7  9  2  0  0  0  0
  8  7  2  0  0  0  0
 10 14  1  0  0  0  0
 11 10  1  0  0  0  0
 11 15  1  0  0  0  0
 12 17  1  0  0  0  0
 13  5  1  0  0  0  0
 16 20  1  0  0  0  0
 16 18  2  0  0  0  0
 17 16  1  0  0  0  0
 19 16  2  0  0  0  0
 20 21  1  0  0  0  0
M  RAD  3   2   2   3   3   4   2
M  END
