Coordinates from ORCA-job 4-NO2PhN2+~HSO4-_B3LYPG-6-31G_dp-CH-Scan-d09-49-n800
 OpenBabel11261919243D

 21 20  0  0  0  0  0  0  0  0999 V2000
   -2.0205    0.0587   -0.3523 C   0  0  0  0  0  0  0  0  0  0  0  0
   -3.3710   -0.2100   -0.5483 N   0  0  0  0  0  0  0  0  0  0  0  0
   -4.4409   -0.4576   -0.7743 N   0  0  0  0  0  0  0  0  0  0  0  0
   -1.5179    1.3249   -0.6916 C   0  0  0  0  0  0  0  0  0  0  0  0
   -0.1517    1.5274   -0.5193 C   0  0  0  0  0  0  0  0  0  0  0  0
    0.6325    0.4961   -0.0082 C   0  0  0  0  0  0  0  0  0  0  0  0
    2.0843    0.7342    0.1808 N   0  0  0  0  0  0  0  0  0  0  0  0
    2.5178    1.8351   -0.1396 O   0  0  0  0  0  0  0  0  0  0  0  0
    2.7460   -0.1913    0.6424 O   0  0  0  0  0  0  0  0  0  0  0  0
    0.1214   -0.7558    0.3362 C   0  0  0  0  0  0  0  0  0  0  0  0
   -1.2337   -0.9889    0.1542 C   0  0  0  0  0  0  0  0  0  0  0  0
   -2.1671    2.0924   -1.0589 H   0  0  0  0  0  0  0  0  0  0  0  0
    0.3040    2.4785   -0.7635 H   0  0  0  0  0  0  0  0  0  0  0  0
    0.7826   -1.5166    0.7297 H   0  0  0  0  0  0  0  0  0  0  0  0
   -1.6794   -1.9455    0.4008 H   0  0  0  0  0  0  0  0  0  0  0  0
   -4.7424    2.5480   -0.3138 S   0  0  0  0  0  0  0  0  0  0  0  0
   -3.9977    3.2077   -1.3974 O   0  0  0  0  0  0  0  0  0  0  0  0
   -5.7110    1.4921   -0.7589 O   0  0  0  0  0  0  0  0  0  0  0  0
   -3.8795    2.0313    0.7837 O   0  0  0  0  0  0  0  0  0  0  0  0
   -5.6654    3.7499    0.3185 O   0  0  0  0  0  0  0  0  0  0  0  0
   -6.2573    3.3381    0.9685 H   0  0  0  0  0  0  0  0  0  0  0  0
  1 11  2  0  0  0  0
  2  1  1  0  0  0  0
  3  2  1  0  0  0  0
  4  5  2  0  0  0  0
  4  1  1  0  0  0  0
  5  6  1  0  0  0  0
  6  7  1  0  0  0  0
  6 10  2  0  0  0  0
  7  9  2  0  0  0  0
  8  7  2  0  0  0  0
 10 14  1  0  0  0  0
 11 10  1  0  0  0  0
 11 15  1  0  0  0  0
 12  4  1  0  0  0  0
 13  5  1  0  0  0  0
 16 20  1  0  0  0  0
 16 19  1  0  0  0  0
 17 16  2  0  0  0  0
 18 16  2  0  0  0  0
 20 21  1  0  0  0  0
M  RAD  3   2   2   3   3  19   2
M  END
