Coordinates from ORCA-job 4-NO2PhN2+~HSO4-_B3LYPG-6-31G_dp-CH-Scan-d09-49-n800
 OpenBabel11261919243D

 21 20  0  0  0  0  0  0  0  0999 V2000
   -1.5739   -0.3893   -0.1062 C   0  0  0  0  0  0  0  0  0  0  0  0
   -2.9226   -0.7781   -0.1750 N   0  0  0  0  0  0  0  0  0  0  0  0
   -4.0047   -1.0366   -0.2606 N   0  0  0  0  0  0  0  0  0  0  0  0
   -1.3509    0.8927   -0.6147 C   0  0  0  0  0  0  0  0  0  0  0  0
    0.0366    1.2115   -0.5176 C   0  0  0  0  0  0  0  0  0  0  0  0
    0.9627    0.3268    0.0148 C   0  0  0  0  0  0  0  0  0  0  0  0
    2.3929    0.7275    0.0854 N   0  0  0  0  0  0  0  0  0  0  0  0
    2.6936    1.8430   -0.3288 O   0  0  0  0  0  0  0  0  0  0  0  0
    3.1872   -0.0862    0.5563 O   0  0  0  0  0  0  0  0  0  0  0  0
    0.6359   -0.9561    0.5056 C   0  0  0  0  0  0  0  0  0  0  0  0
   -0.6822   -1.3454    0.4497 C   0  0  0  0  0  0  0  0  0  0  0  0
   -3.9037    3.0545   -1.6035 H   0  0  0  0  0  0  0  0  0  0  0  0
    0.4058    2.1722   -0.8643 H   0  0  0  0  0  0  0  0  0  0  0  0
    1.4127   -1.5930    0.9062 H   0  0  0  0  0  0  0  0  0  0  0  0
   -1.0102   -2.3169    0.8074 H   0  0  0  0  0  0  0  0  0  0  0  0
   -5.7302    2.8246   -0.5089 S   0  0  0  0  0  0  0  0  0  0  0  0
   -4.7882    3.4581   -1.6605 O   0  0  0  0  0  0  0  0  0  0  0  0
   -7.0800    3.2150   -0.8519 O   0  0  0  0  0  0  0  0  0  0  0  0
   -5.3266    1.4569   -0.2551 O   0  0  0  0  0  0  0  0  0  0  0  0
   -5.2634    3.6594    0.8059 O   0  0  0  0  0  0  0  0  0  0  0  0
   -5.7376    4.5085    0.8045 H   0  0  0  0  0  0  0  0  0  0  0  0
  1 11  2  0  0  0  0
  2  1  1  0  0  0  0
  3  2  1  0  0  0  0
  4  5  2  0  0  0  0
  4  1  1  0  0  0  0
  5  6  1  0  0  0  0
  6  7  1  0  0  0  0
  6 10  2  0  0  0  0
  7  9  2  0  0  0  0
  8  7  2  0  0  0  0
 10 14  1  0  0  0  0
 11 10  1  0  0  0  0
 11 15  1  0  0  0  0
 13  5  1  0  0  0  0
 16 19  2  0  0  0  0
 16 20  1  0  0  0  0
 17 12  1  0  0  0  0
 17 16  1  0  0  0  0
 18 16  2  0  0  0  0
 21 20  1  0  0  0  0
M  RAD  3   2   2   3   3   4   2
M  END
