Coordinates from ORCA-job 4-NO2PhN2+~HSO4-_B3LYPG-6-31G_dp-CH-Scan-d09-49-n800
 OpenBabel11261919243D

 21 20  0  0  0  0  0  0  0  0999 V2000
   -1.9319   -0.3240   -0.1777 C   0  0  0  0  0  0  0  0  0  0  0  0
   -3.2328   -0.8213   -0.2595 N   0  0  0  0  0  0  0  0  0  0  0  0
   -4.2826   -1.1825   -0.3342 N   0  0  0  0  0  0  0  0  0  0  0  0
   -1.7672    1.0187   -0.5454 C   0  0  0  0  0  0  0  0  0  0  0  0
   -0.4215    1.4366   -0.4461 C   0  0  0  0  0  0  0  0  0  0  0  0
    0.5763    0.5665   -0.0280 C   0  0  0  0  0  0  0  0  0  0  0  0
    1.9763    1.0606    0.0544 N   0  0  0  0  0  0  0  0  0  0  0  0
    2.1825    2.2271   -0.2609 O   0  0  0  0  0  0  0  0  0  0  0  0
    2.8307    0.2631    0.4350 O   0  0  0  0  0  0  0  0  0  0  0  0
    0.3446   -0.7730    0.3281 C   0  0  0  0  0  0  0  0  0  0  0  0
   -0.9480   -1.2467    0.2540 C   0  0  0  0  0  0  0  0  0  0  0  0
   -2.9223    1.9734   -0.9635 H   0  0  0  0  0  0  0  0  0  0  0  0
   -0.1452    2.4548   -0.6970 H   0  0  0  0  0  0  0  0  0  0  0  0
    1.1692   -1.3961    0.6477 H   0  0  0  0  0  0  0  0  0  0  0  0
   -1.1969   -2.2697    0.5162 H   0  0  0  0  0  0  0  0  0  0  0  0
   -5.0104    2.5845   -0.3971 S   0  0  0  0  0  0  0  0  0  0  0  0
   -3.7408    2.6888   -1.2873 O   0  0  0  0  0  0  0  0  0  0  0  0
   -6.1878    2.9803   -1.1561 O   0  0  0  0  0  0  0  0  0  0  0  0
   -4.9938    1.3242    0.3489 O   0  0  0  0  0  0  0  0  0  0  0  0
   -4.7728    3.7338    0.7498 O   0  0  0  0  0  0  0  0  0  0  0  0
   -5.1722    4.5499    0.4073 H   0  0  0  0  0  0  0  0  0  0  0  0
  1 11  2  0  0  0  0
  2  1  1  0  0  0  0
  3  2  1  0  0  0  0
  4  5  2  0  0  0  0
  4  1  1  0  0  0  0
  5  6  1  0  0  0  0
  6  7  1  0  0  0  0
  6 10  2  0  0  0  0
  7  9  2  0  0  0  0
  8  7  2  0  0  0  0
 10 14  1  0  0  0  0
 11 10  1  0  0  0  0
 11 15  1  0  0  0  0
 13  5  1  0  0  0  0
 16 19  2  0  0  0  0
 16 20  1  0  0  0  0
 17 12  1  0  0  0  0
 17 16  1  0  0  0  0
 18 16  2  0  0  0  0
 21 20  1  0  0  0  0
M  RAD  3   2   2   3   3   4   2
M  END
