Coordinates from ORCA-job 4-NO2PhN2+~HSO4-_B3LYPG-6-31G_dp-CH-Scan-d09-49-n800
 OpenBabel11261919243D

 21 20  0  0  0  0  0  0  0  0999 V2000
   -1.8896   -0.3537   -0.1603 C   0  0  0  0  0  0  0  0  0  0  0  0
   -3.1887   -0.8625   -0.2362 N   0  0  0  0  0  0  0  0  0  0  0  0
   -4.2368   -1.2314   -0.3118 N   0  0  0  0  0  0  0  0  0  0  0  0
   -1.7503    0.9801   -0.5688 C   0  0  0  0  0  0  0  0  0  0  0  0
   -0.4006    1.4046   -0.4682 C   0  0  0  0  0  0  0  0  0  0  0  0
    0.6017    0.5573   -0.0172 C   0  0  0  0  0  0  0  0  0  0  0  0
    1.9970    1.0653    0.0619 N   0  0  0  0  0  0  0  0  0  0  0  0
    2.1985    2.2240   -0.2856 O   0  0  0  0  0  0  0  0  0  0  0  0
    2.8564    0.2869    0.4711 O   0  0  0  0  0  0  0  0  0  0  0  0
    0.3813   -0.7753    0.3781 C   0  0  0  0  0  0  0  0  0  0  0  0
   -0.9053   -1.2614    0.3082 C   0  0  0  0  0  0  0  0  0  0  0  0
   -3.1252    2.1021   -1.1130 H   0  0  0  0  0  0  0  0  0  0  0  0
   -0.1226    2.4157   -0.7462 H   0  0  0  0  0  0  0  0  0  0  0  0
    1.2097   -1.3799    0.7217 H   0  0  0  0  0  0  0  0  0  0  0  0
   -1.1488   -2.2785    0.5978 H   0  0  0  0  0  0  0  0  0  0  0  0
   -5.1251    2.6240   -0.4429 S   0  0  0  0  0  0  0  0  0  0  0  0
   -3.8856    2.7360   -1.4147 O   0  0  0  0  0  0  0  0  0  0  0  0
   -6.2653    3.2341   -1.1009 O   0  0  0  0  0  0  0  0  0  0  0  0
   -5.1890    1.2862    0.1311 O   0  0  0  0  0  0  0  0  0  0  0  0
   -4.6992    3.5846    0.8102 O   0  0  0  0  0  0  0  0  0  0  0  0
   -4.9592    4.4909    0.5747 H   0  0  0  0  0  0  0  0  0  0  0  0
  1 11  2  0  0  0  0
  2  1  1  0  0  0  0
  3  2  1  0  0  0  0
  4  5  2  0  0  0  0
  4  1  1  0  0  0  0
  5  6  1  0  0  0  0
  6  7  1  0  0  0  0
  6 10  2  0  0  0  0
  7  9  2  0  0  0  0
  8  7  2  0  0  0  0
 10 14  1  0  0  0  0
 11 10  1  0  0  0  0
 11 15  1  0  0  0  0
 13  5  1  0  0  0  0
 16 19  2  0  0  0  0
 16 20  1  0  0  0  0
 17 12  1  0  0  0  0
 17 16  1  0  0  0  0
 18 16  2  0  0  0  0
 21 20  1  0  0  0  0
M  RAD  3   2   2   3   3   4   2
M  END
