Coordinates from ORCA-job 4-NO2PhN2+~HSO4-_B3LYPG-6-31G_dp-CH-Scan-d09-49-n800
 OpenBabel11261919243D

 21 20  0  0  0  0  0  0  0  0999 V2000
   -1.9065   -0.3499   -0.1680 C   0  0  0  0  0  0  0  0  0  0  0  0
   -3.2034   -0.8625   -0.2472 N   0  0  0  0  0  0  0  0  0  0  0  0
   -4.2497   -1.2351   -0.3245 N   0  0  0  0  0  0  0  0  0  0  0  0
   -1.7662    0.9853   -0.5722 C   0  0  0  0  0  0  0  0  0  0  0  0
   -0.4190    1.4136   -0.4696 C   0  0  0  0  0  0  0  0  0  0  0  0
    0.5844    0.5671   -0.0195 C   0  0  0  0  0  0  0  0  0  0  0  0
    1.9785    1.0781    0.0624 N   0  0  0  0  0  0  0  0  0  0  0  0
    2.1776    2.2374   -0.2837 O   0  0  0  0  0  0  0  0  0  0  0  0
    2.8386    0.3009    0.4721 O   0  0  0  0  0  0  0  0  0  0  0  0
    0.3658   -0.7664    0.3719 C   0  0  0  0  0  0  0  0  0  0  0  0
   -0.9199   -1.2552    0.2990 C   0  0  0  0  0  0  0  0  0  0  0  0
   -3.0756    2.0542   -1.0839 H   0  0  0  0  0  0  0  0  0  0  0  0
   -0.1446    2.4263   -0.7448 H   0  0  0  0  0  0  0  0  0  0  0  0
    1.1948   -1.3705    0.7154 H   0  0  0  0  0  0  0  0  0  0  0  0
   -1.1614   -2.2735    0.5858 H   0  0  0  0  0  0  0  0  0  0  0  0
   -5.0868    2.6115   -0.4340 S   0  0  0  0  0  0  0  0  0  0  0  0
   -3.8431    2.7057   -1.3931 O   0  0  0  0  0  0  0  0  0  0  0  0
   -6.2297    3.2032   -1.1058 O   0  0  0  0  0  0  0  0  0  0  0  0
   -5.1525    1.2845    0.1680 O   0  0  0  0  0  0  0  0  0  0  0  0
   -4.6766    3.5984    0.8059 O   0  0  0  0  0  0  0  0  0  0  0  0
   -4.9514    4.4959    0.5547 H   0  0  0  0  0  0  0  0  0  0  0  0
  1 11  2  0  0  0  0
  2  1  1  0  0  0  0
  3  2  1  0  0  0  0
  4  5  2  0  0  0  0
  4  1  1  0  0  0  0
  5  6  1  0  0  0  0
  6  7  1  0  0  0  0
  6 10  2  0  0  0  0
  7  9  2  0  0  0  0
  8  7  2  0  0  0  0
 10 14  1  0  0  0  0
 11 10  1  0  0  0  0
 11 15  1  0  0  0  0
 13  5  1  0  0  0  0
 16 19  2  0  0  0  0
 16 20  1  0  0  0  0
 17 12  1  0  0  0  0
 17 16  1  0  0  0  0
 18 16  2  0  0  0  0
 21 20  1  0  0  0  0
M  RAD  3   2   2   3   3   4   2
M  END
