Coordinates from ORCA-job 4-NO2PhN2+~HSO4-_B3LYPG-6-31G_dp-CH-Scan-d09-49-n800
 OpenBabel11261919243D

 21 20  0  0  0  0  0  0  0  0999 V2000
   -1.9354   -0.3205   -0.1794 C   0  0  0  0  0  0  0  0  0  0  0  0
   -3.2367   -0.8158   -0.2622 N   0  0  0  0  0  0  0  0  0  0  0  0
   -4.2871   -1.1752   -0.3371 N   0  0  0  0  0  0  0  0  0  0  0  0
   -1.7669    1.0221   -0.5456 C   0  0  0  0  0  0  0  0  0  0  0  0
   -0.4218    1.4394   -0.4461 C   0  0  0  0  0  0  0  0  0  0  0  0
    0.5748    0.5675   -0.0286 C   0  0  0  0  0  0  0  0  0  0  0  0
    1.9753    1.0600    0.0544 N   0  0  0  0  0  0  0  0  0  0  0  0
    2.1828    2.2262   -0.2608 O   0  0  0  0  0  0  0  0  0  0  0  0
    2.8286    0.2611    0.4342 O   0  0  0  0  0  0  0  0  0  0  0  0
    0.3411   -0.7717    0.3263 C   0  0  0  0  0  0  0  0  0  0  0  0
   -0.9522   -1.2440    0.2515 C   0  0  0  0  0  0  0  0  0  0  0  0
   -2.9037    1.9616   -0.9559 H   0  0  0  0  0  0  0  0  0  0  0  0
   -0.1453    2.4577   -0.6962 H   0  0  0  0  0  0  0  0  0  0  0  0
    1.1647   -1.3962    0.6456 H   0  0  0  0  0  0  0  0  0  0  0  0
   -1.2022   -2.2668    0.5129 H   0  0  0  0  0  0  0  0  0  0  0  0
   -5.0027    2.5810   -0.3947 S   0  0  0  0  0  0  0  0  0  0  0  0
   -3.7341    2.6867   -1.2816 O   0  0  0  0  0  0  0  0  0  0  0  0
   -6.1849    2.9628   -1.1546 O   0  0  0  0  0  0  0  0  0  0  0  0
   -4.9799    1.3253    0.3606 O   0  0  0  0  0  0  0  0  0  0  0  0
   -4.7758    3.7392    0.7464 O   0  0  0  0  0  0  0  0  0  0  0  0
   -5.1852    4.5485    0.3998 H   0  0  0  0  0  0  0  0  0  0  0  0
  1 11  2  0  0  0  0
  2  1  1  0  0  0  0
  3  2  1  0  0  0  0
  4  5  2  0  0  0  0
  4  1  1  0  0  0  0
  5  6  1  0  0  0  0
  6  7  1  0  0  0  0
  6 10  2  0  0  0  0
  7  9  2  0  0  0  0
  8  7  2  0  0  0  0
 10 14  1  0  0  0  0
 11 10  1  0  0  0  0
 11 15  1  0  0  0  0
 13  5  1  0  0  0  0
 16 19  2  0  0  0  0
 16 20  1  0  0  0  0
 17 12  1  0  0  0  0
 17 16  1  0  0  0  0
 18 16  2  0  0  0  0
 21 20  1  0  0  0  0
M  RAD  3   2   2   3   3   4   2
M  END
