Coordinates from ORCA-job 4-NO2PhN2+~HSO4-_B3LYPG-6-31G_dp-CH-Scan-d09-49-n800
 OpenBabel11261919243D

 21 20  0  0  0  0  0  0  0  0999 V2000
   -1.7896   -0.3653   -0.1292 C   0  0  0  0  0  0  0  0  0  0  0  0
   -3.1047   -0.8393   -0.1954 N   0  0  0  0  0  0  0  0  0  0  0  0
   -4.1637   -1.1795   -0.2658 N   0  0  0  0  0  0  0  0  0  0  0  0
   -1.6320    0.9578   -0.5609 C   0  0  0  0  0  0  0  0  0  0  0  0
   -0.2682    1.3507   -0.4685 C   0  0  0  0  0  0  0  0  0  0  0  0
    0.7158    0.4881   -0.0077 C   0  0  0  0  0  0  0  0  0  0  0  0
    2.1230    0.9643    0.0601 N   0  0  0  0  0  0  0  0  0  0  0  0
    2.3516    2.1139   -0.3016 O   0  0  0  0  0  0  0  0  0  0  0  0
    2.9670    0.1725    0.4771 O   0  0  0  0  0  0  0  0  0  0  0  0
    0.4681   -0.8350    0.4096 C   0  0  0  0  0  0  0  0  0  0  0  0
   -0.8285   -1.2929    0.3520 C   0  0  0  0  0  0  0  0  0  0  0  0
   -3.3610    2.3832   -1.2583 H   0  0  0  0  0  0  0  0  0  0  0  0
    0.0365    2.3499   -0.7622 H   0  0  0  0  0  0  0  0  0  0  0  0
    1.2850   -1.4516    0.7593 H   0  0  0  0  0  0  0  0  0  0  0  0
   -1.0943   -2.3000    0.6578 H   0  0  0  0  0  0  0  0  0  0  0  0
   -5.3342    2.6913   -0.4742 S   0  0  0  0  0  0  0  0  0  0  0  0
   -4.1383    2.9479   -1.5035 O   0  0  0  0  0  0  0  0  0  0  0  0
   -6.5159    3.2914   -1.0584 O   0  0  0  0  0  0  0  0  0  0  0  0
   -5.2970    1.3175   -0.0047 O   0  0  0  0  0  0  0  0  0  0  0  0
   -4.8903    3.5849    0.8150 O   0  0  0  0  0  0  0  0  0  0  0  0
   -5.1760    4.4992    0.6482 H   0  0  0  0  0  0  0  0  0  0  0  0
  1 11  2  0  0  0  0
  2  1  1  0  0  0  0
  3  2  1  0  0  0  0
  4  5  2  0  0  0  0
  4  1  1  0  0  0  0
  5  6  1  0  0  0  0
  6  7  1  0  0  0  0
  6 10  2  0  0  0  0
  7  9  2  0  0  0  0
  8  7  2  0  0  0  0
 10 14  1  0  0  0  0
 11 10  1  0  0  0  0
 11 15  1  0  0  0  0
 13  5  1  0  0  0  0
 16 19  2  0  0  0  0
 16 20  1  0  0  0  0
 17 12  1  0  0  0  0
 17 16  1  0  0  0  0
 18 16  2  0  0  0  0
 21 20  1  0  0  0  0
M  RAD  3   2   2   3   3   4   2
M  END
