Coordinates from ORCA-job 4-NO2PhN2+~HSO4-_B3LYPG-6-31G_dp-CH-Scan-d09-49-n800
 OpenBabel11261919243D

 21 20  0  0  0  0  0  0  0  0999 V2000
   -2.0157    0.0556   -0.3476 C   0  0  0  0  0  0  0  0  0  0  0  0
   -3.3667   -0.2145   -0.5420 N   0  0  0  0  0  0  0  0  0  0  0  0
   -4.4362   -0.4639   -0.7640 N   0  0  0  0  0  0  0  0  0  0  0  0
   -1.5167    1.3236   -0.6832 C   0  0  0  0  0  0  0  0  0  0  0  0
   -0.1502    1.5274   -0.5149 C   0  0  0  0  0  0  0  0  0  0  0  0
    0.6368    0.4940   -0.0121 C   0  0  0  0  0  0  0  0  0  0  0  0
    2.0896    0.7322    0.1717 N   0  0  0  0  0  0  0  0  0  0  0  0
    2.5209    1.8352   -0.1443 O   0  0  0  0  0  0  0  0  0  0  0  0
    2.7539   -0.1952    0.6258 O   0  0  0  0  0  0  0  0  0  0  0  0
    0.1287   -0.7604    0.3288 C   0  0  0  0  0  0  0  0  0  0  0  0
   -1.2266   -0.9945    0.1516 C   0  0  0  0  0  0  0  0  0  0  0  0
   -2.2135    2.1357   -1.0625 H   0  0  0  0  0  0  0  0  0  0  0  0
    0.3044    2.4799   -0.7561 H   0  0  0  0  0  0  0  0  0  0  0  0
    0.7927   -1.5219    0.7160 H   0  0  0  0  0  0  0  0  0  0  0  0
   -1.6701   -1.9529    0.3955 H   0  0  0  0  0  0  0  0  0  0  0  0
   -4.7378    2.5384   -0.2875 S   0  0  0  0  0  0  0  0  0  0  0  0
   -3.9477    3.1714   -1.3595 O   0  0  0  0  0  0  0  0  0  0  0  0
   -5.7168    1.5024   -0.7515 O   0  0  0  0  0  0  0  0  0  0  0  0
   -3.9112    2.0175    0.8334 O   0  0  0  0  0  0  0  0  0  0  0  0
   -5.6516    3.7687    0.3012 O   0  0  0  0  0  0  0  0  0  0  0  0
   -6.3127    3.3702    0.8900 H   0  0  0  0  0  0  0  0  0  0  0  0
  1 11  2  0  0  0  0
  2  1  1  0  0  0  0
  3  2  1  0  0  0  0
  4  5  2  0  0  0  0
  4  1  1  0  0  0  0
  5  6  1  0  0  0  0
  6  7  1  0  0  0  0
  6 10  2  0  0  0  0
  7  9  2  0  0  0  0
  8  7  2  0  0  0  0
 10 14  1  0  0  0  0
 11 10  1  0  0  0  0
 11 15  1  0  0  0  0
 12  4  1  0  0  0  0
 13  5  1  0  0  0  0
 16 20  1  0  0  0  0
 16 19  1  0  0  0  0
 17 16  2  0  0  0  0
 18 16  2  0  0  0  0
 20 21  1  0  0  0  0
M  RAD  3   2   2   3   3  19   2
M  END
