Coordinates from ORCA-job 4-NO2PhN2+~HSO4-_B3LYPG-6-31G_dp-CH-Scan-d09-49-n800
 OpenBabel11261919243D

 21 20  0  0  0  0  0  0  0  0999 V2000
   -1.5740   -0.4321   -0.2713 C   0  0  0  0  0  0  0  0  0  0  0  0
   -2.9057   -0.8502   -0.4477 N   0  0  0  0  0  0  0  0  0  0  0  0
   -3.9706   -1.1269   -0.6339 N   0  0  0  0  0  0  0  0  0  0  0  0
   -1.3098    0.7837   -0.9038 C   0  0  0  0  0  0  0  0  0  0  0  0
    0.0559    1.1430   -0.6938 C   0  0  0  0  0  0  0  0  0  0  0  0
    0.9228    0.3509    0.0442 C   0  0  0  0  0  0  0  0  0  0  0  0
    2.3312    0.7904    0.2272 N   0  0  0  0  0  0  0  0  0  0  0  0
    2.6686    1.8532   -0.2861 O   0  0  0  0  0  0  0  0  0  0  0  0
    3.0732    0.0602    0.8839 O   0  0  0  0  0  0  0  0  0  0  0  0
    0.5544   -0.8716    0.6480 C   0  0  0  0  0  0  0  0  0  0  0  0
   -0.7449   -1.2959    0.4923 C   0  0  0  0  0  0  0  0  0  0  0  0
   -4.2160    3.1068   -1.9269 H   0  0  0  0  0  0  0  0  0  0  0  0
    0.4535    2.0628   -1.1128 H   0  0  0  0  0  0  0  0  0  0  0  0
    1.2872   -1.4376    1.2070 H   0  0  0  0  0  0  0  0  0  0  0  0
   -1.1019   -2.2263    0.9240 H   0  0  0  0  0  0  0  0  0  0  0  0
   -5.6626    2.8012   -0.3744 S   0  0  0  0  0  0  0  0  0  0  0  0
   -5.0847    3.4933   -1.7195 O   0  0  0  0  0  0  0  0  0  0  0  0
   -7.0569    3.1801   -0.3133 O   0  0  0  0  0  0  0  0  0  0  0  0
   -5.1936    1.4332   -0.3003 O   0  0  0  0  0  0  0  0  0  0  0  0
   -4.8529    3.5974    0.7876 O   0  0  0  0  0  0  0  0  0  0  0  0
   -5.3198    4.4335    0.9584 H   0  0  0  0  0  0  0  0  0  0  0  0
  1 11  2  0  0  0  0
  2  1  1  0  0  0  0
  3  2  1  0  0  0  0
  4  5  2  0  0  0  0
  4  1  1  0  0  0  0
  5  6  1  0  0  0  0
  6  7  1  0  0  0  0
  6 10  2  0  0  0  0
  7  9  2  0  0  0  0
  8  7  2  0  0  0  0
 10 14  1  0  0  0  0
 11 10  1  0  0  0  0
 11 15  1  0  0  0  0
 12 17  1  0  0  0  0
 13  5  1  0  0  0  0
 16 18  2  0  0  0  0
 16 19  2  0  0  0  0
 16 20  1  0  0  0  0
 17 16  1  0  0  0  0
 20 21  1  0  0  0  0
M  RAD  3   2   2   3   3   4   2
M  END
