Coordinates from ORCA-job 4-NO2PhN2+~HSO4-_B3LYPG-6-31G_dp-CH-Scan-d09-49-n800
 OpenBabel11261919243D

 21 20  0  0  0  0  0  0  0  0999 V2000
   -1.6856   -0.4972   -0.8033 C   0  0  0  0  0  0  0  0  0  0  0  0
   -2.8892   -1.0533   -1.2728 N   0  0  0  0  0  0  0  0  0  0  0  0
   -3.8253   -1.4577   -1.7265 N   0  0  0  0  0  0  0  0  0  0  0  0
   -1.0854    0.3120   -1.7672 C   0  0  0  0  0  0  0  0  0  0  0  0
    0.1297    0.8510   -1.2459 C   0  0  0  0  0  0  0  0  0  0  0  0
    0.5690    0.5680    0.0392 C   0  0  0  0  0  0  0  0  0  0  0  0
    1.8372    1.1738    0.5235 N   0  0  0  0  0  0  0  0  0  0  0  0
    2.4346    1.9320   -0.2353 O   0  0  0  0  0  0  0  0  0  0  0  0
    2.2119    0.8783    1.6585 O   0  0  0  0  0  0  0  0  0  0  0  0
   -0.1192   -0.2730    0.9422 C   0  0  0  0  0  0  0  0  0  0  0  0
   -1.2994   -0.8387    0.5184 C   0  0  0  0  0  0  0  0  0  0  0  0
   -4.6910    3.0043   -1.9704 H   0  0  0  0  0  0  0  0  0  0  0  0
    0.7461    1.5079   -1.8534 H   0  0  0  0  0  0  0  0  0  0  0  0
    0.2876   -0.4498    1.9285 H   0  0  0  0  0  0  0  0  0  0  0  0
   -1.8877   -1.4927    1.1557 H   0  0  0  0  0  0  0  0  0  0  0  0
   -4.9881    2.4576    0.0806 S   0  0  0  0  0  0  0  0  0  0  0  0
   -5.2463    3.3480   -1.2490 O   0  0  0  0  0  0  0  0  0  0  0  0
   -6.0645    2.7883    0.9865 O   0  0  0  0  0  0  0  0  0  0  0  0
   -4.6525    1.1056   -0.3182 O   0  0  0  0  0  0  0  0  0  0  0  0
   -3.6057    3.0910    0.6460 O   0  0  0  0  0  0  0  0  0  0  0  0
   -3.8227    3.8935    1.1518 H   0  0  0  0  0  0  0  0  0  0  0  0
  1 11  2  0  0  0  0
  2  1  1  0  0  0  0
  3  2  1  0  0  0  0
  4  5  2  0  0  0  0
  4  1  1  0  0  0  0
  5  6  1  0  0  0  0
  6  7  1  0  0  0  0
  6 10  2  0  0  0  0
  7  9  2  0  0  0  0
  8  7  2  0  0  0  0
 10 14  1  0  0  0  0
 11 10  1  0  0  0  0
 11 15  1  0  0  0  0
 12 17  1  0  0  0  0
 13  5  1  0  0  0  0
 16 20  1  0  0  0  0
 16 18  2  0  0  0  0
 17 16  1  0  0  0  0
 19 16  2  0  0  0  0
 20 21  1  0  0  0  0
M  RAD  3   2   2   3   3   4   2
M  END
