Coordinates from ORCA-job 4-NO2PhN2+~HSO4-_B3LYPG-6-31G_dp-CH-Scan-d09-49-n800
 OpenBabel11261919243D

 21 20  0  0  0  0  0  0  0  0999 V2000
   -2.0211    0.0595   -0.3509 C   0  0  0  0  0  0  0  0  0  0  0  0
   -3.3718   -0.2087   -0.5459 N   0  0  0  0  0  0  0  0  0  0  0  0
   -4.4418   -0.4572   -0.7705 N   0  0  0  0  0  0  0  0  0  0  0  0
   -1.5187    1.3262   -0.6887 C   0  0  0  0  0  0  0  0  0  0  0  0
   -0.1523    1.5281   -0.5170 C   0  0  0  0  0  0  0  0  0  0  0  0
    0.6323    0.4962   -0.0078 C   0  0  0  0  0  0  0  0  0  0  0  0
    2.0841    0.7341    0.1807 N   0  0  0  0  0  0  0  0  0  0  0  0
    2.5173    1.8357   -0.1376 O   0  0  0  0  0  0  0  0  0  0  0  0
    2.7460   -0.1920    0.6409 O   0  0  0  0  0  0  0  0  0  0  0  0
    0.1213   -0.7561    0.3349 C   0  0  0  0  0  0  0  0  0  0  0  0
   -1.2340   -0.9888    0.1534 C   0  0  0  0  0  0  0  0  0  0  0  0
   -2.1552    2.0801   -1.0485 H   0  0  0  0  0  0  0  0  0  0  0  0
    0.3032    2.4797   -0.7600 H   0  0  0  0  0  0  0  0  0  0  0  0
    0.7826   -1.5176    0.7269 H   0  0  0  0  0  0  0  0  0  0  0  0
   -1.6796   -1.9457    0.3989 H   0  0  0  0  0  0  0  0  0  0  0  0
   -4.7449    2.5510   -0.3207 S   0  0  0  0  0  0  0  0  0  0  0  0
   -4.0095    3.2136   -1.4079 O   0  0  0  0  0  0  0  0  0  0  0  0
   -5.7109    1.4899   -0.7594 O   0  0  0  0  0  0  0  0  0  0  0  0
   -3.8739    2.0384    0.7728 O   0  0  0  0  0  0  0  0  0  0  0  0
   -5.6700    3.7481    0.3177 O   0  0  0  0  0  0  0  0  0  0  0  0
   -6.2499    3.3346    0.9774 H   0  0  0  0  0  0  0  0  0  0  0  0
  1 11  2  0  0  0  0
  2  1  1  0  0  0  0
  3  2  1  0  0  0  0
  4  5  2  0  0  0  0
  4  1  1  0  0  0  0
  5  6  1  0  0  0  0
  6  7  1  0  0  0  0
  6 10  2  0  0  0  0
  7  9  2  0  0  0  0
  8  7  2  0  0  0  0
 10 14  1  0  0  0  0
 11 10  1  0  0  0  0
 11 15  1  0  0  0  0
 12  4  1  0  0  0  0
 13  5  1  0  0  0  0
 16 20  1  0  0  0  0
 16 19  1  0  0  0  0
 17 16  2  0  0  0  0
 18 16  2  0  0  0  0
 20 21  1  0  0  0  0
M  RAD  3   2   2   3   3  19   2
M  END
