Coordinates from ORCA-job 4-NO2PhN2+~HSO4-_B3LYPG-6-31G_dp-CH-Scan-d09-49-n800
 OpenBabel11261919243D

 21 20  0  0  0  0  0  0  0  0999 V2000
   -1.8416   -0.3604   -0.1393 C   0  0  0  0  0  0  0  0  0  0  0  0
   -3.1483   -0.8537   -0.2062 N   0  0  0  0  0  0  0  0  0  0  0  0
   -4.2019   -1.2092   -0.2755 N   0  0  0  0  0  0  0  0  0  0  0  0
   -1.6970    0.9688   -0.5589 C   0  0  0  0  0  0  0  0  0  0  0  0
   -0.3401    1.3792   -0.4652 C   0  0  0  0  0  0  0  0  0  0  0  0
    0.6556    0.5254   -0.0126 C   0  0  0  0  0  0  0  0  0  0  0  0
    2.0563    1.0198    0.0579 N   0  0  0  0  0  0  0  0  0  0  0  0
    2.2688    2.1749   -0.2955 O   0  0  0  0  0  0  0  0  0  0  0  0
    2.9106    0.2351    0.4665 O   0  0  0  0  0  0  0  0  0  0  0  0
    0.4248   -0.8035    0.3929 C   0  0  0  0  0  0  0  0  0  0  0  0
   -0.8662   -1.2773    0.3322 C   0  0  0  0  0  0  0  0  0  0  0  0
   -3.2430    2.2393   -1.1842 H   0  0  0  0  0  0  0  0  0  0  0  0
   -0.0504    2.3849   -0.7510 H   0  0  0  0  0  0  0  0  0  0  0  0
    1.2494   -1.4132    0.7367 H   0  0  0  0  0  0  0  0  0  0  0  0
   -1.1186   -2.2902    0.6295 H   0  0  0  0  0  0  0  0  0  0  0  0
   -5.2297    2.6587   -0.4670 S   0  0  0  0  0  0  0  0  0  0  0  0
   -4.0023    2.8386   -1.4619 O   0  0  0  0  0  0  0  0  0  0  0  0
   -6.3773    3.2883   -1.0895 O   0  0  0  0  0  0  0  0  0  0  0  0
   -5.2643    1.2958    0.0391 O   0  0  0  0  0  0  0  0  0  0  0  0
   -4.7890    3.5648    0.8174 O   0  0  0  0  0  0  0  0  0  0  0  0
   -5.0426    4.4829    0.6233 H   0  0  0  0  0  0  0  0  0  0  0  0
  1 11  2  0  0  0  0
  2  1  1  0  0  0  0
  3  2  1  0  0  0  0
  4  5  2  0  0  0  0
  4  1  1  0  0  0  0
  5  6  1  0  0  0  0
  6  7  1  0  0  0  0
  6 10  2  0  0  0  0
  7  9  2  0  0  0  0
  8  7  2  0  0  0  0
 10 14  1  0  0  0  0
 11 10  1  0  0  0  0
 11 15  1  0  0  0  0
 13  5  1  0  0  0  0
 16 19  2  0  0  0  0
 16 20  1  0  0  0  0
 17 12  1  0  0  0  0
 17 16  1  0  0  0  0
 18 16  2  0  0  0  0
 21 20  1  0  0  0  0
M  RAD  3   2   2   3   3   4   2
M  END
