Coordinates from ORCA-job 4-NO2PhN2+~HSO4-_B3LYPG-6-31G_dp-CH-Scan-d09-49-n800
 OpenBabel11261919243D

 21 20  0  0  0  0  0  0  0  0999 V2000
   -1.6294   -0.5062   -1.0527 C   0  0  0  0  0  0  0  0  0  0  0  0
   -2.8313   -1.1133   -1.4711 N   0  0  0  0  0  0  0  0  0  0  0  0
   -3.7358   -1.6192   -1.8839 N   0  0  0  0  0  0  0  0  0  0  0  0
   -0.6208   -0.6560   -2.0017 C   0  0  0  0  0  0  0  0  0  0  0  0
    0.5648    0.0018   -1.5453 C   0  0  0  0  0  0  0  0  0  0  0  0
    0.6096    0.6868   -0.3412 C   0  0  0  0  0  0  0  0  0  0  0  0
    1.8624    1.3804    0.0583 N   0  0  0  0  0  0  0  0  0  0  0  0
    2.8258    1.3001   -0.6968 O   0  0  0  0  0  0  0  0  0  0  0  0
    1.8537    1.9953    1.1256 O   0  0  0  0  0  0  0  0  0  0  0  0
   -0.4752    0.7643    0.5637 C   0  0  0  0  0  0  0  0  0  0  0  0
   -1.6508    0.1386    0.2133 C   0  0  0  0  0  0  0  0  0  0  0  0
   -2.9672    2.8577   -0.0014 H   0  0  0  0  0  0  0  0  0  0  0  0
    1.4693   -0.0163   -2.1471 H   0  0  0  0  0  0  0  0  0  0  0  0
   -0.3504    1.2848    1.5040 H   0  0  0  0  0  0  0  0  0  0  0  0
   -2.5204    0.1256    0.8628 H   0  0  0  0  0  0  0  0  0  0  0  0
   -5.0197    2.2825    0.2386 S   0  0  0  0  0  0  0  0  0  0  0  0
   -3.8084    3.3437    0.0727 O   0  0  0  0  0  0  0  0  0  0  0  0
   -6.2337    3.0255   -0.0035 O   0  0  0  0  0  0  0  0  0  0  0  0
   -4.6687    1.0537   -0.4476 O   0  0  0  0  0  0  0  0  0  0  0  0
   -4.9244    1.9163    1.8197 O   0  0  0  0  0  0  0  0  0  0  0  0
   -5.3961    2.6031    2.3224 H   0  0  0  0  0  0  0  0  0  0  0  0
  1 11  2  0  0  0  0
  2  1  1  0  0  0  0
  3  2  1  0  0  0  0
  4  5  2  0  0  0  0
  4  1  1  0  0  0  0
  5  6  1  0  0  0  0
  6  7  1  0  0  0  0
  6 10  2  0  0  0  0
  7  9  2  0  0  0  0
  8  7  2  0  0  0  0
 10 14  1  0  0  0  0
 11 10  1  0  0  0  0
 11 15  1  0  0  0  0
 12 17  1  0  0  0  0
 13  5  1  0  0  0  0
 16 20  1  0  0  0  0
 17 16  1  0  0  0  0
 18 16  2  0  0  0  0
 19 16  2  0  0  0  0
 20 21  1  0  0  0  0
M  RAD  3   2   2   3   3   4   2
M  END
