Coordinates from ORCA-job 4-NO2PhN2+~HSO4-_B3LYPG-6-31G_dp-CH-Scan-d09-49-n800
 OpenBabel11261919243D

 21 20  0  0  0  0  0  0  0  0999 V2000
   -2.0254    0.0597   -0.3412 C   0  0  0  0  0  0  0  0  0  0  0  0
   -3.3766   -0.2072   -0.5312 N   0  0  0  0  0  0  0  0  0  0  0  0
   -4.4482   -0.4550   -0.7522 N   0  0  0  0  0  0  0  0  0  0  0  0
   -1.5273    1.3316   -0.6677 C   0  0  0  0  0  0  0  0  0  0  0  0
   -0.1602    1.5332   -0.4986 C   0  0  0  0  0  0  0  0  0  0  0  0
    0.6290    0.4980   -0.0044 C   0  0  0  0  0  0  0  0  0  0  0  0
    2.0807    0.7373    0.1811 N   0  0  0  0  0  0  0  0  0  0  0  0
    2.5095    1.8445   -0.1239 O   0  0  0  0  0  0  0  0  0  0  0  0
    2.7470   -0.1931    0.6259 O   0  0  0  0  0  0  0  0  0  0  0  0
    0.1219   -0.7592    0.3258 C   0  0  0  0  0  0  0  0  0  0  0  0
   -1.2339   -0.9921    0.1475 C   0  0  0  0  0  0  0  0  0  0  0  0
   -2.0999    2.0130   -0.9855 H   0  0  0  0  0  0  0  0  0  0  0  0
    0.2912    2.4889   -0.7332 H   0  0  0  0  0  0  0  0  0  0  0  0
    0.7863   -1.5238    0.7062 H   0  0  0  0  0  0  0  0  0  0  0  0
   -1.6767   -1.9524    0.3844 H   0  0  0  0  0  0  0  0  0  0  0  0
   -4.7562    2.5642   -0.3595 S   0  0  0  0  0  0  0  0  0  0  0  0
   -4.0699    3.2361   -1.4690 O   0  0  0  0  0  0  0  0  0  0  0  0
   -5.7111    1.4773   -0.7617 O   0  0  0  0  0  0  0  0  0  0  0  0
   -3.8471    2.0741    0.7154 O   0  0  0  0  0  0  0  0  0  0  0  0
   -5.6864    3.7429    0.3061 O   0  0  0  0  0  0  0  0  0  0  0  0
   -6.1935    3.3312    1.0243 H   0  0  0  0  0  0  0  0  0  0  0  0
  1 11  2  0  0  0  0
  2  1  1  0  0  0  0
  3  2  1  0  0  0  0
  4  5  2  0  0  0  0
  4  1  1  0  0  0  0
  5  6  1  0  0  0  0
  6  7  1  0  0  0  0
  6 10  2  0  0  0  0
  7  9  2  0  0  0  0
  8  7  2  0  0  0  0
 10 14  1  0  0  0  0
 11 10  1  0  0  0  0
 11 15  1  0  0  0  0
 12  4  1  0  0  0  0
 13  5  1  0  0  0  0
 16 20  1  0  0  0  0
 16 19  1  0  0  0  0
 17 16  2  0  0  0  0
 18 16  2  0  0  0  0
 20 21  1  0  0  0  0
M  RAD  3   2   2   3   3  19   2
M  END
