Coordinates from ORCA-job 4-NO2PhN2+~HSO4-_B3LYPG-6-31G_dp-CH-Scan-d09-49-n800
 OpenBabel11261919243D

 21 20  0  0  0  0  0  0  0  0999 V2000
   -1.6935   -0.3727   -0.1057 C   0  0  0  0  0  0  0  0  0  0  0  0
   -3.0244   -0.8093   -0.1653 N   0  0  0  0  0  0  0  0  0  0  0  0
   -4.0938   -1.1171   -0.2362 N   0  0  0  0  0  0  0  0  0  0  0  0
   -1.5087    0.9347   -0.5682 C   0  0  0  0  0  0  0  0  0  0  0  0
   -0.1322    1.2922   -0.4830 C   0  0  0  0  0  0  0  0  0  0  0  0
    0.8288    0.4153   -0.0017 C   0  0  0  0  0  0  0  0  0  0  0  0
    2.2481    0.8552    0.0567 N   0  0  0  0  0  0  0  0  0  0  0  0
    2.5085    1.9901   -0.3304 O   0  0  0  0  0  0  0  0  0  0  0  0
    3.0720    0.0512    0.4910 O   0  0  0  0  0  0  0  0  0  0  0  0
    0.5473   -0.8922    0.4465 C   0  0  0  0  0  0  0  0  0  0  0  0
   -0.7603   -1.3175    0.3986 C   0  0  0  0  0  0  0  0  0  0  0  0
   -3.5703    2.6801   -1.3864 H   0  0  0  0  0  0  0  0  0  0  0  0
    0.2009    2.2758   -0.7990 H   0  0  0  0  0  0  0  0  0  0  0  0
    1.3484   -1.5210    0.8107 H   0  0  0  0  0  0  0  0  0  0  0  0
   -1.0529   -2.3102    0.7269 H   0  0  0  0  0  0  0  0  0  0  0  0
   -5.5192    2.7539   -0.5026 S   0  0  0  0  0  0  0  0  0  0  0  0
   -4.3891    3.1875   -1.5626 O   0  0  0  0  0  0  0  0  0  0  0  0
   -6.7659    3.2842   -1.0115 O   0  0  0  0  0  0  0  0  0  0  0  0
   -5.3357    1.3641   -0.1314 O   0  0  0  0  0  0  0  0  0  0  0  0
   -5.0961    3.6038    0.8195 O   0  0  0  0  0  0  0  0  0  0  0  0
   -5.4584    4.5010    0.7227 H   0  0  0  0  0  0  0  0  0  0  0  0
  1 11  2  0  0  0  0
  2  1  1  0  0  0  0
  3  2  1  0  0  0  0
  4  5  2  0  0  0  0
  4  1  1  0  0  0  0
  5  6  1  0  0  0  0
  6  7  1  0  0  0  0
  6 10  2  0  0  0  0
  7  9  2  0  0  0  0
  8  7  2  0  0  0  0
 10 14  1  0  0  0  0
 11 10  1  0  0  0  0
 11 15  1  0  0  0  0
 13  5  1  0  0  0  0
 16 19  2  0  0  0  0
 16 20  1  0  0  0  0
 17 12  1  0  0  0  0
 17 16  1  0  0  0  0
 18 16  2  0  0  0  0
 21 20  1  0  0  0  0
M  RAD  3   2   2   3   3   4   2
M  END
