Coordinates from ORCA-job 4-NO2PhN2+~HSO4-_B3LYPG-6-31G_dp-CH-Scan-d09-49-n800
 OpenBabel11261919243D

 21 20  0  0  0  0  0  0  0  0999 V2000
   -1.6701   -0.3755   -0.1028 C   0  0  0  0  0  0  0  0  0  0  0  0
   -3.0047   -0.8028   -0.1624 N   0  0  0  0  0  0  0  0  0  0  0  0
   -4.0766   -1.1019   -0.2344 N   0  0  0  0  0  0  0  0  0  0  0  0
   -1.4784    0.9273   -0.5746 C   0  0  0  0  0  0  0  0  0  0  0  0
   -0.0992    1.2765   -0.4891 C   0  0  0  0  0  0  0  0  0  0  0  0
    0.8556    0.3975    0.0005 C   0  0  0  0  0  0  0  0  0  0  0  0
    2.2774    0.8292    0.0588 N   0  0  0  0  0  0  0  0  0  0  0  0
    2.5456    1.9600   -0.3350 O   0  0  0  0  0  0  0  0  0  0  0  0
    3.0959    0.0230    0.4996 O   0  0  0  0  0  0  0  0  0  0  0  0
    0.5655   -0.9054    0.4575 C   0  0  0  0  0  0  0  0  0  0  0  0
   -0.7444   -1.3231    0.4102 C   0  0  0  0  0  0  0  0  0  0  0  0
   -3.6274    2.7572   -1.4238 H   0  0  0  0  0  0  0  0  0  0  0  0
    0.2409    2.2558   -0.8115 H   0  0  0  0  0  0  0  0  0  0  0  0
    1.3623   -1.5362    0.8277 H   0  0  0  0  0  0  0  0  0  0  0  0
   -1.0438   -2.3118    0.7447 H   0  0  0  0  0  0  0  0  0  0  0  0
   -5.5620    2.7684   -0.5071 S   0  0  0  0  0  0  0  0  0  0  0  0
   -4.4591    3.2468   -1.5795 O   0  0  0  0  0  0  0  0  0  0  0  0
   -6.8285    3.2750   -0.9898 O   0  0  0  0  0  0  0  0  0  0  0  0
   -5.3360    1.3789   -0.1608 O   0  0  0  0  0  0  0  0  0  0  0  0
   -5.1379    3.6101    0.8195 O   0  0  0  0  0  0  0  0  0  0  0  0
   -5.5218    4.5001    0.7412 H   0  0  0  0  0  0  0  0  0  0  0  0
  1 11  2  0  0  0  0
  2  1  1  0  0  0  0
  3  2  1  0  0  0  0
  4  5  2  0  0  0  0
  4  1  1  0  0  0  0
  5  6  1  0  0  0  0
  6  7  1  0  0  0  0
  6 10  2  0  0  0  0
  7  9  2  0  0  0  0
  8  7  2  0  0  0  0
 10 14  1  0  0  0  0
 11 10  1  0  0  0  0
 11 15  1  0  0  0  0
 13  5  1  0  0  0  0
 16 19  2  0  0  0  0
 16 20  1  0  0  0  0
 17 12  1  0  0  0  0
 17 16  1  0  0  0  0
 18 16  2  0  0  0  0
 21 20  1  0  0  0  0
M  RAD  3   2   2   3   3   4   2
M  END
