Coordinates from ORCA-job 4-NO2PhN2+~HSO4-_B3LYPG-6-31G_dp-CH-Scan-d09-49-n800
 OpenBabel11261919243D

 21 20  0  0  0  0  0  0  0  0999 V2000
   -1.8659   -0.3575   -0.1500 C   0  0  0  0  0  0  0  0  0  0  0  0
   -3.1687   -0.8591   -0.2217 N   0  0  0  0  0  0  0  0  0  0  0  0
   -4.2194   -1.2216   -0.2944 N   0  0  0  0  0  0  0  0  0  0  0  0
   -1.7250    0.9743   -0.5637 C   0  0  0  0  0  0  0  0  0  0  0  0
   -0.3717    1.3923   -0.4661 C   0  0  0  0  0  0  0  0  0  0  0  0
    0.6276    0.5422   -0.0145 C   0  0  0  0  0  0  0  0  0  0  0  0
    2.0254    1.0441    0.0605 N   0  0  0  0  0  0  0  0  0  0  0  0
    2.2318    2.2013   -0.2890 O   0  0  0  0  0  0  0  0  0  0  0  0
    2.8828    0.2627    0.4689 O   0  0  0  0  0  0  0  0  0  0  0  0
    0.4028   -0.7889    0.3854 C   0  0  0  0  0  0  0  0  0  0  0  0
   -0.8858   -1.2695    0.3198 C   0  0  0  0  0  0  0  0  0  0  0  0
   -3.1863    2.1690   -1.1496 H   0  0  0  0  0  0  0  0  0  0  0  0
   -0.0881    2.4009   -0.7477 H   0  0  0  0  0  0  0  0  0  0  0  0
    1.2296   -1.3958    0.7289 H   0  0  0  0  0  0  0  0  0  0  0  0
   -1.1332   -2.2848    0.6129 H   0  0  0  0  0  0  0  0  0  0  0  0
   -5.1773    2.6409   -0.4543 S   0  0  0  0  0  0  0  0  0  0  0  0
   -3.9442    2.7834   -1.4402 O   0  0  0  0  0  0  0  0  0  0  0  0
   -6.3196    3.2639   -1.0944 O   0  0  0  0  0  0  0  0  0  0  0  0
   -5.2294    1.2905    0.0863 O   0  0  0  0  0  0  0  0  0  0  0  0
   -4.7399    3.5736    0.8137 O   0  0  0  0  0  0  0  0  0  0  0  0
   -4.9922    4.4871    0.5979 H   0  0  0  0  0  0  0  0  0  0  0  0
  1 11  2  0  0  0  0
  2  1  1  0  0  0  0
  3  2  1  0  0  0  0
  4  5  2  0  0  0  0
  4  1  1  0  0  0  0
  5  6  1  0  0  0  0
  6  7  1  0  0  0  0
  6 10  2  0  0  0  0
  7  9  2  0  0  0  0
  8  7  2  0  0  0  0
 10 14  1  0  0  0  0
 11 10  1  0  0  0  0
 11 15  1  0  0  0  0
 13  5  1  0  0  0  0
 16 19  2  0  0  0  0
 16 20  1  0  0  0  0
 17 12  1  0  0  0  0
 17 16  1  0  0  0  0
 18 16  2  0  0  0  0
 21 20  1  0  0  0  0
M  RAD  3   2   2   3   3   4   2
M  END
