Coordinates from ORCA-job 4-NO2PhN2+~HSO4-_B3LYPG-6-31G_dp-CH-Scan-d09-49-n800
 OpenBabel11261919243D

 21 20  0  0  0  0  0  0  0  0999 V2000
   -1.9453   -0.3062   -0.1864 C   0  0  0  0  0  0  0  0  0  0  0  0
   -3.2498   -0.7895   -0.2725 N   0  0  0  0  0  0  0  0  0  0  0  0
   -4.3053   -1.1328   -0.3459 N   0  0  0  0  0  0  0  0  0  0  0  0
   -1.7567    1.0346   -0.5477 C   0  0  0  0  0  0  0  0  0  0  0  0
   -0.4144    1.4487   -0.4480 C   0  0  0  0  0  0  0  0  0  0  0  0
    0.5753    0.5681   -0.0309 C   0  0  0  0  0  0  0  0  0  0  0  0
    1.9788    1.0513    0.0550 N   0  0  0  0  0  0  0  0  0  0  0  0
    2.1930    2.2165   -0.2590 O   0  0  0  0  0  0  0  0  0  0  0  0
    2.8254    0.2461    0.4354 O   0  0  0  0  0  0  0  0  0  0  0  0
    0.3304   -0.7691    0.3199 C   0  0  0  0  0  0  0  0  0  0  0  0
   -0.9667   -1.2334    0.2422 C   0  0  0  0  0  0  0  0  0  0  0  0
   -2.8311    1.9215   -0.9337 H   0  0  0  0  0  0  0  0  0  0  0  0
   -0.1356    2.4668   -0.6956 H   0  0  0  0  0  0  0  0  0  0  0  0
    1.1488   -1.4004    0.6393 H   0  0  0  0  0  0  0  0  0  0  0  0
   -1.2230   -2.2550    0.5015 H   0  0  0  0  0  0  0  0  0  0  0  0
   -4.9811    2.5699   -0.3871 S   0  0  0  0  0  0  0  0  0  0  0  0
   -3.7236    2.6893   -1.2674 O   0  0  0  0  0  0  0  0  0  0  0  0
   -6.1882    2.8896   -1.1406 O   0  0  0  0  0  0  0  0  0  0  0  0
   -4.9241    1.3323    0.4041 O   0  0  0  0  0  0  0  0  0  0  0  0
   -4.7972    3.7619    0.7317 O   0  0  0  0  0  0  0  0  0  0  0  0
   -5.2564    4.5389    0.3746 H   0  0  0  0  0  0  0  0  0  0  0  0
  1 11  2  0  0  0  0
  2  1  1  0  0  0  0
  3  2  1  0  0  0  0
  4  5  2  0  0  0  0
  4  1  1  0  0  0  0
  5  6  1  0  0  0  0
  6  7  1  0  0  0  0
  6 10  2  0  0  0  0
  7  9  2  0  0  0  0
  8  7  2  0  0  0  0
 10 14  1  0  0  0  0
 11 10  1  0  0  0  0
 11 15  1  0  0  0  0
 13  5  1  0  0  0  0
 16 19  2  0  0  0  0
 16 20  1  0  0  0  0
 17 12  1  0  0  0  0
 17 16  1  0  0  0  0
 18 16  2  0  0  0  0
 21 20  1  0  0  0  0
M  RAD  3   2   2   3   3   4   2
M  END
