Coordinates from ORCA-job 4-NO2PhN2+~HSO4-_B3LYPG-6-31G_dp-CH-Scan-d09-49-n800
 OpenBabel11261919243D

 21 20  0  0  0  0  0  0  0  0999 V2000
   -1.6276   -0.4497   -1.0498 C   0  0  0  0  0  0  0  0  0  0  0  0
   -2.8254   -1.0431   -1.4987 N   0  0  0  0  0  0  0  0  0  0  0  0
   -3.7251   -1.5347   -1.9390 N   0  0  0  0  0  0  0  0  0  0  0  0
   -0.6447   -0.4807   -2.0369 C   0  0  0  0  0  0  0  0  0  0  0  0
    0.5512    0.1217   -1.5385 C   0  0  0  0  0  0  0  0  0  0  0  0
    0.6372    0.6270   -0.2495 C   0  0  0  0  0  0  0  0  0  0  0  0
    1.9111    1.2418    0.2073 N   0  0  0  0  0  0  0  0  0  0  0  0
    2.8703    1.2046   -0.5573 O   0  0  0  0  0  0  0  0  0  0  0  0
    1.9238    1.7573    1.3260 O   0  0  0  0  0  0  0  0  0  0  0  0
   -0.4285    0.6082    0.6792 C   0  0  0  0  0  0  0  0  0  0  0  0
   -1.6211    0.0497    0.2789 C   0  0  0  0  0  0  0  0  0  0  0  0
   -3.5190    3.2511   -0.7617 H   0  0  0  0  0  0  0  0  0  0  0  0
    1.4333    0.1986   -2.1684 H   0  0  0  0  0  0  0  0  0  0  0  0
   -0.2870    1.0259    1.6666 H   0  0  0  0  0  0  0  0  0  0  0  0
   -2.4886    0.0054    0.9292 H   0  0  0  0  0  0  0  0  0  0  0  0
   -5.0967    2.2280    0.2607 S   0  0  0  0  0  0  0  0  0  0  0  0
   -4.3770    3.5232   -0.3922 O   0  0  0  0  0  0  0  0  0  0  0  0
   -6.4802    2.5948    0.4502 O   0  0  0  0  0  0  0  0  0  0  0  0
   -4.6590    1.0426   -0.4510 O   0  0  0  0  0  0  0  0  0  0  0  0
   -4.3693    2.1357    1.7116 O   0  0  0  0  0  0  0  0  0  0  0  0
   -4.8243    2.7419    2.3221 H   0  0  0  0  0  0  0  0  0  0  0  0
  1 11  2  0  0  0  0
  2  1  1  0  0  0  0
  3  2  1  0  0  0  0
  4  5  2  0  0  0  0
  4  1  1  0  0  0  0
  5  6  1  0  0  0  0
  6  7  1  0  0  0  0
  6 10  2  0  0  0  0
  7  9  2  0  0  0  0
  8  7  2  0  0  0  0
 10 14  1  0  0  0  0
 11 10  1  0  0  0  0
 11 15  1  0  0  0  0
 12 17  1  0  0  0  0
 13  5  1  0  0  0  0
 16 18  2  0  0  0  0
 16 20  1  0  0  0  0
 17 16  1  0  0  0  0
 19 16  2  0  0  0  0
 20 21  1  0  0  0  0
M  RAD  3   2   2   3   3   4   2
M  END
