Coordinates from ORCA-job 4-NO2PhN2+~HSO4-_B3LYPG-6-31G_dp-CH-Scan-d09-49-n800
 OpenBabel11261919243D

 21 20  0  0  0  0  0  0  0  0999 V2000
   -1.8034   -0.3641   -0.1329 C   0  0  0  0  0  0  0  0  0  0  0  0
   -3.1162   -0.8434   -0.2002 N   0  0  0  0  0  0  0  0  0  0  0  0
   -4.1736   -1.1880   -0.2708 N   0  0  0  0  0  0  0  0  0  0  0  0
   -1.6492    0.9606   -0.5614 C   0  0  0  0  0  0  0  0  0  0  0  0
   -0.2873    1.3584   -0.4679 C   0  0  0  0  0  0  0  0  0  0  0  0
    0.6996    0.4984   -0.0085 C   0  0  0  0  0  0  0  0  0  0  0  0
    2.1050    0.9795    0.0609 N   0  0  0  0  0  0  0  0  0  0  0  0
    2.3296    2.1304   -0.2993 O   0  0  0  0  0  0  0  0  0  0  0  0
    2.9517    0.1896    0.4756 O   0  0  0  0  0  0  0  0  0  0  0  0
    0.4564   -0.8264    0.4057 C   0  0  0  0  0  0  0  0  0  0  0  0
   -0.8386   -1.2888    0.3464 C   0  0  0  0  0  0  0  0  0  0  0  0
   -3.3317    2.3439   -1.2411 H   0  0  0  0  0  0  0  0  0  0  0  0
    0.0135    2.3594   -0.7593 H   0  0  0  0  0  0  0  0  0  0  0  0
    1.2752   -1.4410    0.7544 H   0  0  0  0  0  0  0  0  0  0  0  0
   -1.1009   -2.2975    0.6499 H   0  0  0  0  0  0  0  0  0  0  0  0
   -5.3068    2.6824   -0.4707 S   0  0  0  0  0  0  0  0  0  0  0  0
   -4.1041    2.9171   -1.4943 O   0  0  0  0  0  0  0  0  0  0  0  0
   -6.4803    3.2904   -1.0636 O   0  0  0  0  0  0  0  0  0  0  0  0
   -5.2881    1.3115    0.0102 O   0  0  0  0  0  0  0  0  0  0  0  0
   -4.8605    3.5804    0.8152 O   0  0  0  0  0  0  0  0  0  0  0  0
   -5.1370    4.4960    0.6404 H   0  0  0  0  0  0  0  0  0  0  0  0
  1 11  2  0  0  0  0
  2  1  1  0  0  0  0
  3  2  1  0  0  0  0
  4  5  2  0  0  0  0
  4  1  1  0  0  0  0
  5  6  1  0  0  0  0
  6  7  1  0  0  0  0
  6 10  2  0  0  0  0
  7  9  2  0  0  0  0
  8  7  2  0  0  0  0
 10 14  1  0  0  0  0
 11 10  1  0  0  0  0
 11 15  1  0  0  0  0
 13  5  1  0  0  0  0
 16 19  2  0  0  0  0
 16 20  1  0  0  0  0
 17 12  1  0  0  0  0
 17 16  1  0  0  0  0
 18 16  2  0  0  0  0
 21 20  1  0  0  0  0
M  RAD  3   2   2   3   3   4   2
M  END
