Coordinates from ORCA-job 4-NO2PhN2+~HSO4-_B3LYPG-6-31G_dp-CH-Scan-d09-49-n800
 OpenBabel11261919243D

 21 20  0  0  0  0  0  0  0  0999 V2000
   -1.6574   -0.4788   -0.5474 C   0  0  0  0  0  0  0  0  0  0  0  0
   -2.9264   -0.9797   -0.8900 N   0  0  0  0  0  0  0  0  0  0  0  0
   -3.9325   -1.3251   -1.2272 N   0  0  0  0  0  0  0  0  0  0  0  0
   -1.2940    0.6083   -1.3423 C   0  0  0  0  0  0  0  0  0  0  0  0
    0.0018    1.0678   -0.9576 C   0  0  0  0  0  0  0  0  0  0  0  0
    0.7202    0.4726    0.0687 C   0  0  0  0  0  0  0  0  0  0  0  0
    2.0604    1.0091    0.4234 N   0  0  0  0  0  0  0  0  0  0  0  0
    2.4678    1.9851   -0.2002 O   0  0  0  0  0  0  0  0  0  0  0  0
    2.6804    0.4415    1.3226 O   0  0  0  0  0  0  0  0  0  0  0  0
    0.2590   -0.6329    0.8174 C   0  0  0  0  0  0  0  0  0  0  0  0
   -0.9801   -1.1437    0.5079 C   0  0  0  0  0  0  0  0  0  0  0  0
   -4.4959    2.9778   -2.0959 H   0  0  0  0  0  0  0  0  0  0  0  0
    0.4611    1.9104   -1.4666 H   0  0  0  0  0  0  0  0  0  0  0  0
    0.8779   -1.0461    1.6026 H   0  0  0  0  0  0  0  0  0  0  0  0
   -1.4019   -1.9931    1.0374 H   0  0  0  0  0  0  0  0  0  0  0  0
   -5.3032    2.6550   -0.1338 S   0  0  0  0  0  0  0  0  0  0  0  0
   -5.2156    3.3813   -1.5800 O   0  0  0  0  0  0  0  0  0  0  0  0
   -6.5605    3.0838    0.4365 O   0  0  0  0  0  0  0  0  0  0  0  0
   -4.9110    1.2674   -0.2710 O   0  0  0  0  0  0  0  0  0  0  0  0
   -4.0877    3.3672    0.6737 O   0  0  0  0  0  0  0  0  0  0  0  0
   -4.4092    4.2214    1.0105 H   0  0  0  0  0  0  0  0  0  0  0  0
  1 11  2  0  0  0  0
  2  1  1  0  0  0  0
  3  2  1  0  0  0  0
  4  5  2  0  0  0  0
  4  1  1  0  0  0  0
  5  6  1  0  0  0  0
  6  7  1  0  0  0  0
  6 10  2  0  0  0  0
  7  9  2  0  0  0  0
  8  7  2  0  0  0  0
 10 14  1  0  0  0  0
 11 10  1  0  0  0  0
 11 15  1  0  0  0  0
 12 17  1  0  0  0  0
 13  5  1  0  0  0  0
 16 18  2  0  0  0  0
 16 20  1  0  0  0  0
 17 16  1  0  0  0  0
 19 16  2  0  0  0  0
 20 21  1  0  0  0  0
M  RAD  3   2   2   3   3   4   2
M  END
