Coordinates from ORCA-job 4-NO2PhN2+~HSO4-_B3LYPG-6-31G_dp-CH-Scan-d09-49-n800
 OpenBabel11261919243D

 21 20  0  0  0  0  0  0  0  0999 V2000
   -1.6613   -0.4789   -0.5398 C   0  0  0  0  0  0  0  0  0  0  0  0
   -2.9309   -0.9810   -0.8784 N   0  0  0  0  0  0  0  0  0  0  0  0
   -3.9377   -1.3272   -1.2126 N   0  0  0  0  0  0  0  0  0  0  0  0
   -1.3064    0.6168   -1.3270 C   0  0  0  0  0  0  0  0  0  0  0  0
   -0.0094    1.0765   -0.9467 C   0  0  0  0  0  0  0  0  0  0  0  0
    0.7176    0.4739    0.0692 C   0  0  0  0  0  0  0  0  0  0  0  0
    2.0586    1.0111    0.4199 N   0  0  0  0  0  0  0  0  0  0  0  0
    2.4602    1.9922   -0.1994 O   0  0  0  0  0  0  0  0  0  0  0  0
    2.6855    0.4382    1.3109 O   0  0  0  0  0  0  0  0  0  0  0  0
    0.2647   -0.6398    0.8108 C   0  0  0  0  0  0  0  0  0  0  0  0
   -0.9750   -1.1514    0.5047 C   0  0  0  0  0  0  0  0  0  0  0  0
   -4.4734    2.9689   -2.0946 H   0  0  0  0  0  0  0  0  0  0  0  0
    0.4440    1.9251   -1.4507 H   0  0  0  0  0  0  0  0  0  0  0  0
    0.8900   -1.0584    1.5879 H   0  0  0  0  0  0  0  0  0  0  0  0
   -1.3906   -2.0070    1.0289 H   0  0  0  0  0  0  0  0  0  0  0  0
   -5.3025    2.6577   -0.1396 S   0  0  0  0  0  0  0  0  0  0  0  0
   -5.1973    3.3767   -1.5881 O   0  0  0  0  0  0  0  0  0  0  0  0
   -6.5632    3.0957    0.4164 O   0  0  0  0  0  0  0  0  0  0  0  0
   -4.9163    1.2675   -0.2661 O   0  0  0  0  0  0  0  0  0  0  0  0
   -4.0914    3.3676    0.6764 O   0  0  0  0  0  0  0  0  0  0  0  0
   -4.4121    4.2247    1.0066 H   0  0  0  0  0  0  0  0  0  0  0  0
  1 11  2  0  0  0  0
  2  1  1  0  0  0  0
  3  2  1  0  0  0  0
  4  5  2  0  0  0  0
  4  1  1  0  0  0  0
  5  6  1  0  0  0  0
  6  7  1  0  0  0  0
  6 10  2  0  0  0  0
  7  9  2  0  0  0  0
  8  7  2  0  0  0  0
 10 14  1  0  0  0  0
 11 10  1  0  0  0  0
 11 15  1  0  0  0  0
 12 17  1  0  0  0  0
 13  5  1  0  0  0  0
 16 18  2  0  0  0  0
 16 20  1  0  0  0  0
 17 16  1  0  0  0  0
 19 16  2  0  0  0  0
 20 21  1  0  0  0  0
M  RAD  3   2   2   3   3   4   2
M  END
