Coordinates from ORCA-job 4-NO2PhN2+~HSO4-_B3LYPG-6-31G_dp-CH-Scan-d09-49-n800
 OpenBabel11261919243D

 21 20  0  0  0  0  0  0  0  0999 V2000
   -1.8629   -0.3579   -0.1487 C   0  0  0  0  0  0  0  0  0  0  0  0
   -3.1662   -0.8586   -0.2198 N   0  0  0  0  0  0  0  0  0  0  0  0
   -4.2173   -1.2202   -0.2921 N   0  0  0  0  0  0  0  0  0  0  0  0
   -1.7217    0.9735   -0.5631 C   0  0  0  0  0  0  0  0  0  0  0  0
   -0.3679    1.3907   -0.4660 C   0  0  0  0  0  0  0  0  0  0  0  0
    0.6310    0.5401   -0.0143 C   0  0  0  0  0  0  0  0  0  0  0  0
    2.0291    1.0412    0.0602 N   0  0  0  0  0  0  0  0  0  0  0  0
    2.2362    2.1983   -0.2896 O   0  0  0  0  0  0  0  0  0  0  0  0
    2.8861    0.2595    0.4688 O   0  0  0  0  0  0  0  0  0  0  0  0
    0.4055   -0.7907    0.3863 C   0  0  0  0  0  0  0  0  0  0  0  0
   -0.8833   -1.2706    0.3213 C   0  0  0  0  0  0  0  0  0  0  0  0
   -3.1936    2.1776   -1.1541 H   0  0  0  0  0  0  0  0  0  0  0  0
   -0.0836    2.3990   -0.7480 H   0  0  0  0  0  0  0  0  0  0  0  0
    1.2321   -1.3979    0.7298 H   0  0  0  0  0  0  0  0  0  0  0  0
   -1.1314   -2.2856    0.6148 H   0  0  0  0  0  0  0  0  0  0  0  0
   -5.1839    2.6431   -0.4558 S   0  0  0  0  0  0  0  0  0  0  0  0
   -3.9516    2.7898   -1.4432 O   0  0  0  0  0  0  0  0  0  0  0  0
   -6.3266    3.2673   -1.0936 O   0  0  0  0  0  0  0  0  0  0  0  0
   -5.2340    1.2912    0.0807 O   0  0  0  0  0  0  0  0  0  0  0  0
   -4.7455    3.5724    0.8141 O   0  0  0  0  0  0  0  0  0  0  0  0
   -4.9975    4.4867    0.6009 H   0  0  0  0  0  0  0  0  0  0  0  0
  1 11  2  0  0  0  0
  2  1  1  0  0  0  0
  3  2  1  0  0  0  0
  4  5  2  0  0  0  0
  4  1  1  0  0  0  0
  5  6  1  0  0  0  0
  6  7  1  0  0  0  0
  6 10  2  0  0  0  0
  7  9  2  0  0  0  0
  8  7  2  0  0  0  0
 10 14  1  0  0  0  0
 11 10  1  0  0  0  0
 11 15  1  0  0  0  0
 13  5  1  0  0  0  0
 16 19  2  0  0  0  0
 16 20  1  0  0  0  0
 17 12  1  0  0  0  0
 17 16  1  0  0  0  0
 18 16  2  0  0  0  0
 21 20  1  0  0  0  0
M  RAD  3   2   2   3   3   4   2
M  END
