Coordinates from ORCA-job 4-NO2PhN2+~HSO4-_B3LYPG-6-31G_dp-CH-Scan-d09-49-n800
 OpenBabel11261919243D

 21 20  0  0  0  0  0  0  0  0999 V2000
   -1.6332   -0.5093   -1.0506 C   0  0  0  0  0  0  0  0  0  0  0  0
   -2.8344   -1.1183   -1.4685 N   0  0  0  0  0  0  0  0  0  0  0  0
   -3.7379   -1.6258   -1.8812 N   0  0  0  0  0  0  0  0  0  0  0  0
   -0.6247   -0.6574   -2.0000 C   0  0  0  0  0  0  0  0  0  0  0  0
    0.5595    0.0042   -1.5450 C   0  0  0  0  0  0  0  0  0  0  0  0
    0.6025    0.6923   -0.3427 C   0  0  0  0  0  0  0  0  0  0  0  0
    1.8530    1.3913    0.0543 N   0  0  0  0  0  0  0  0  0  0  0  0
    2.8146    1.3170   -0.7037 O   0  0  0  0  0  0  0  0  0  0  0  0
    1.8446    2.0039    1.1230 O   0  0  0  0  0  0  0  0  0  0  0  0
   -0.4816    0.7669    0.5634 C   0  0  0  0  0  0  0  0  0  0  0  0
   -1.6552    0.1362    0.2150 C   0  0  0  0  0  0  0  0  0  0  0  0
   -2.9436    2.8304    0.0193 H   0  0  0  0  0  0  0  0  0  0  0  0
    1.4640   -0.0133   -2.1468 H   0  0  0  0  0  0  0  0  0  0  0  0
   -0.3571    1.2881    1.5033 H   0  0  0  0  0  0  0  0  0  0  0  0
   -2.5233    0.1191    0.8664 H   0  0  0  0  0  0  0  0  0  0  0  0
   -5.0070    2.2845    0.2347 S   0  0  0  0  0  0  0  0  0  0  0  0
   -3.7786    3.3281    0.0862 O   0  0  0  0  0  0  0  0  0  0  0  0
   -6.2074    3.0467   -0.0159 O   0  0  0  0  0  0  0  0  0  0  0  0
   -4.6680    1.0535   -0.4536 O   0  0  0  0  0  0  0  0  0  0  0  0
   -4.9332    1.9097    1.8151 O   0  0  0  0  0  0  0  0  0  0  0  0
   -5.3997    2.6013    2.3161 H   0  0  0  0  0  0  0  0  0  0  0  0
  1 11  2  0  0  0  0
  2  1  1  0  0  0  0
  3  2  1  0  0  0  0
  4  5  2  0  0  0  0
  4  1  1  0  0  0  0
  5  6  1  0  0  0  0
  6  7  1  0  0  0  0
  6 10  2  0  0  0  0
  7  9  2  0  0  0  0
  8  7  2  0  0  0  0
 10 14  1  0  0  0  0
 11 10  1  0  0  0  0
 11 15  1  0  0  0  0
 12 17  1  0  0  0  0
 13  5  1  0  0  0  0
 16 20  1  0  0  0  0
 17 16  1  0  0  0  0
 18 16  2  0  0  0  0
 19 16  2  0  0  0  0
 20 21  1  0  0  0  0
M  RAD  3   2   2   3   3   4   2
M  END
