Coordinates from ORCA-job 4-NO2PhN2+~HSO4-_B3LYPG-6-31G_dp-CH-Scan-d09-49-n800
 OpenBabel11261919243D

 21 20  0  0  0  0  0  0  0  0999 V2000
   -1.6029   -0.4268   -0.2421 C   0  0  0  0  0  0  0  0  0  0  0  0
   -2.9331   -0.8546   -0.3993 N   0  0  0  0  0  0  0  0  0  0  0  0
   -3.9983   -1.1419   -0.5665 N   0  0  0  0  0  0  0  0  0  0  0  0
   -1.3623    0.8111   -0.8419 C   0  0  0  0  0  0  0  0  0  0  0  0
    0.0049    1.1753   -0.6528 C   0  0  0  0  0  0  0  0  0  0  0  0
    0.8957    0.3678    0.0386 C   0  0  0  0  0  0  0  0  0  0  0  0
    2.3047    0.8135    0.2012 N   0  0  0  0  0  0  0  0  0  0  0  0
    2.6213    1.8939   -0.2880 O   0  0  0  0  0  0  0  0  0  0  0  0
    3.0683    0.0688    0.8155 O   0  0  0  0  0  0  0  0  0  0  0  0
    0.5514   -0.8758    0.6122 C   0  0  0  0  0  0  0  0  0  0  0  0
   -0.7479   -1.3060    0.4741 C   0  0  0  0  0  0  0  0  0  0  0  0
   -4.0732    3.0339   -1.8525 H   0  0  0  0  0  0  0  0  0  0  0  0
    0.3851    2.1113   -1.0514 H   0  0  0  0  0  0  0  0  0  0  0  0
    1.3016   -1.4528    1.1357 H   0  0  0  0  0  0  0  0  0  0  0  0
   -1.0872   -2.2521    0.8853 H   0  0  0  0  0  0  0  0  0  0  0  0
   -5.6280    2.7927   -0.3964 S   0  0  0  0  0  0  0  0  0  0  0  0
   -4.9475    3.4397   -1.7143 O   0  0  0  0  0  0  0  0  0  0  0  0
   -7.0102    3.2170   -0.4272 O   0  0  0  0  0  0  0  0  0  0  0  0
   -5.2114    1.4117   -0.2687 O   0  0  0  0  0  0  0  0  0  0  0  0
   -4.8644    3.5843    0.8003 O   0  0  0  0  0  0  0  0  0  0  0  0
   -5.3132    4.4379    0.9271 H   0  0  0  0  0  0  0  0  0  0  0  0
  1 11  2  0  0  0  0
  2  1  1  0  0  0  0
  3  2  1  0  0  0  0
  4  5  2  0  0  0  0
  4  1  1  0  0  0  0
  5  6  1  0  0  0  0
  6  7  1  0  0  0  0
  6 10  2  0  0  0  0
  7  9  2  0  0  0  0
  8  7  2  0  0  0  0
 10 14  1  0  0  0  0
 11 10  1  0  0  0  0
 11 15  1  0  0  0  0
 12 17  1  0  0  0  0
 13  5  1  0  0  0  0
 16 19  2  0  0  0  0
 16 20  1  0  0  0  0
 17 16  1  0  0  0  0
 18 16  2  0  0  0  0
 20 21  1  0  0  0  0
M  RAD  3   2   2   3   3   4   2
M  END
