Coordinates from ORCA-job 4-NO2PhN2+~HSO4-_B3LYPG-6-31G_dp-CH-Scan-d09-49-n800
 OpenBabel11261919243D

 21 20  0  0  0  0  0  0  0  0999 V2000
   -1.8798   -0.3554   -0.1560 C   0  0  0  0  0  0  0  0  0  0  0  0
   -3.1804   -0.8614   -0.2302 N   0  0  0  0  0  0  0  0  0  0  0  0
   -4.2296   -1.2277   -0.3046 N   0  0  0  0  0  0  0  0  0  0  0  0
   -1.7402    0.9776   -0.5667 C   0  0  0  0  0  0  0  0  0  0  0  0
   -0.3890    1.3996   -0.4672 C   0  0  0  0  0  0  0  0  0  0  0  0
    0.6122    0.5512   -0.0160 C   0  0  0  0  0  0  0  0  0  0  0  0
    2.0085    1.0569    0.0614 N   0  0  0  0  0  0  0  0  0  0  0  0
    2.2119    2.2151   -0.2868 O   0  0  0  0  0  0  0  0  0  0  0  0
    2.8672    0.2774    0.4701 O   0  0  0  0  0  0  0  0  0  0  0  0
    0.3902   -0.7808    0.3811 C   0  0  0  0  0  0  0  0  0  0  0  0
   -0.8972   -1.2648    0.3130 C   0  0  0  0  0  0  0  0  0  0  0  0
   -3.1512    2.1296   -1.1284 H   0  0  0  0  0  0  0  0  0  0  0  0
   -0.1087    2.4097   -0.7466 H   0  0  0  0  0  0  0  0  0  0  0  0
    1.2181   -1.3863    0.7247 H   0  0  0  0  0  0  0  0  0  0  0  0
   -1.1422   -2.2813    0.6040 H   0  0  0  0  0  0  0  0  0  0  0  0
   -5.1468    2.6309   -0.4476 S   0  0  0  0  0  0  0  0  0  0  0  0
   -3.9100    2.7548   -1.4257 O   0  0  0  0  0  0  0  0  0  0  0  0
   -6.2872    3.2475   -1.0982 O   0  0  0  0  0  0  0  0  0  0  0  0
   -5.2067    1.2878    0.1124 O   0  0  0  0  0  0  0  0  0  0  0  0
   -4.7151    3.5795    0.8117 O   0  0  0  0  0  0  0  0  0  0  0  0
   -4.9706    4.4892    0.5843 H   0  0  0  0  0  0  0  0  0  0  0  0
  1 11  2  0  0  0  0
  2  1  1  0  0  0  0
  3  2  1  0  0  0  0
  4  5  2  0  0  0  0
  4  1  1  0  0  0  0
  5  6  1  0  0  0  0
  6  7  1  0  0  0  0
  6 10  2  0  0  0  0
  7  9  2  0  0  0  0
  8  7  2  0  0  0  0
 10 14  1  0  0  0  0
 11 10  1  0  0  0  0
 11 15  1  0  0  0  0
 13  5  1  0  0  0  0
 16 19  2  0  0  0  0
 16 20  1  0  0  0  0
 17 12  1  0  0  0  0
 17 16  1  0  0  0  0
 18 16  2  0  0  0  0
 21 20  1  0  0  0  0
M  RAD  3   2   2   3   3   4   2
M  END
