Coordinates from ORCA-job 4-NO2PhN2+~HSO4-_B3LYPG-6-31G_dp-CH-Scan-d09-49-n800
 OpenBabel11261919243D

 21 20  0  0  0  0  0  0  0  0999 V2000
   -1.6057   -0.4268   -0.2427 C   0  0  0  0  0  0  0  0  0  0  0  0
   -2.9356   -0.8557   -0.3993 N   0  0  0  0  0  0  0  0  0  0  0  0
   -4.0004   -1.1443   -0.5654 N   0  0  0  0  0  0  0  0  0  0  0  0
   -1.3660    0.8113   -0.8425 C   0  0  0  0  0  0  0  0  0  0  0  0
    0.0008    1.1765   -0.6535 C   0  0  0  0  0  0  0  0  0  0  0  0
    0.8924    0.3696    0.0377 C   0  0  0  0  0  0  0  0  0  0  0  0
    2.3011    0.8165    0.2001 N   0  0  0  0  0  0  0  0  0  0  0  0
    2.6164    1.8976   -0.2881 O   0  0  0  0  0  0  0  0  0  0  0  0
    3.0649    0.0731    0.8157 O   0  0  0  0  0  0  0  0  0  0  0  0
    0.5492   -0.8742    0.6113 C   0  0  0  0  0  0  0  0  0  0  0  0
   -0.7498   -1.3053    0.4733 C   0  0  0  0  0  0  0  0  0  0  0  0
   -4.0634    3.0283   -1.8477 H   0  0  0  0  0  0  0  0  0  0  0  0
    0.3803    2.1129   -1.0521 H   0  0  0  0  0  0  0  0  0  0  0  0
    1.2999   -1.4506    1.1347 H   0  0  0  0  0  0  0  0  0  0  0  0
   -1.0884   -2.2517    0.8845 H   0  0  0  0  0  0  0  0  0  0  0  0
   -5.6229    2.7911   -0.3964 S   0  0  0  0  0  0  0  0  0  0  0  0
   -4.9371    3.4360   -1.7126 O   0  0  0  0  0  0  0  0  0  0  0  0
   -7.0038    3.2192   -0.4312 O   0  0  0  0  0  0  0  0  0  0  0  0
   -5.2105    1.4089   -0.2670 O   0  0  0  0  0  0  0  0  0  0  0  0
   -4.8605    3.5809    0.8022 O   0  0  0  0  0  0  0  0  0  0  0  0
   -5.3074    4.4357    0.9276 H   0  0  0  0  0  0  0  0  0  0  0  0
  1 11  2  0  0  0  0
  2  1  1  0  0  0  0
  3  2  1  0  0  0  0
  4  5  2  0  0  0  0
  4  1  1  0  0  0  0
  5  6  1  0  0  0  0
  6  7  1  0  0  0  0
  6 10  2  0  0  0  0
  7  9  2  0  0  0  0
  8  7  2  0  0  0  0
 10 14  1  0  0  0  0
 11 10  1  0  0  0  0
 11 15  1  0  0  0  0
 12 17  1  0  0  0  0
 13  5  1  0  0  0  0
 16 19  2  0  0  0  0
 16 20  1  0  0  0  0
 17 16  1  0  0  0  0
 18 16  2  0  0  0  0
 20 21  1  0  0  0  0
M  RAD  3   2   2   3   3   4   2
M  END
