Coordinates from ORCA-job 4-NO2PhN2+~HSO4-_B3LYPG-6-31G_dp-CH-Scan-d09-49-n800
 OpenBabel11261919243D

 21 20  0  0  0  0  0  0  0  0999 V2000
   -1.7648   -0.3676   -0.1230 C   0  0  0  0  0  0  0  0  0  0  0  0
   -3.0839   -0.8326   -0.1878 N   0  0  0  0  0  0  0  0  0  0  0  0
   -4.1455   -1.1647   -0.2586 N   0  0  0  0  0  0  0  0  0  0  0  0
   -1.6006    0.9520   -0.5615 C   0  0  0  0  0  0  0  0  0  0  0  0
   -0.2336    1.3362   -0.4709 C   0  0  0  0  0  0  0  0  0  0  0  0
    0.7449    0.4697   -0.0058 C   0  0  0  0  0  0  0  0  0  0  0  0
    2.1551    0.9369    0.0596 N   0  0  0  0  0  0  0  0  0  0  0  0
    2.3917    2.0831   -0.3084 O   0  0  0  0  0  0  0  0  0  0  0  0
    2.9944    0.1417    0.4798 O   0  0  0  0  0  0  0  0  0  0  0  0
    0.4889   -0.8500    0.4184 C   0  0  0  0  0  0  0  0  0  0  0  0
   -0.8104   -1.2999    0.3632 C   0  0  0  0  0  0  0  0  0  0  0  0
   -3.4143    2.4565   -1.2915 H   0  0  0  0  0  0  0  0  0  0  0  0
    0.0782    2.3318   -0.7695 H   0  0  0  0  0  0  0  0  0  0  0  0
    1.3020   -1.4699    0.7712 H   0  0  0  0  0  0  0  0  0  0  0  0
   -1.0827   -2.3038    0.6741 H   0  0  0  0  0  0  0  0  0  0  0  0
   -5.3830    2.7078   -0.4807 S   0  0  0  0  0  0  0  0  0  0  0  0
   -4.2015    3.0066   -1.5199 O   0  0  0  0  0  0  0  0  0  0  0  0
   -6.5805    3.2925   -1.0471 O   0  0  0  0  0  0  0  0  0  0  0  0
   -5.3107    1.3285   -0.0340 O   0  0  0  0  0  0  0  0  0  0  0  0
   -4.9433    3.5915    0.8157 O   0  0  0  0  0  0  0  0  0  0  0  0
   -5.2471    4.5029    0.6654 H   0  0  0  0  0  0  0  0  0  0  0  0
  1 11  2  0  0  0  0
  2  1  1  0  0  0  0
  3  2  1  0  0  0  0
  4  5  2  0  0  0  0
  4  1  1  0  0  0  0
  5  6  1  0  0  0  0
  6  7  1  0  0  0  0
  6 10  2  0  0  0  0
  7  9  2  0  0  0  0
  8  7  2  0  0  0  0
 10 14  1  0  0  0  0
 11 10  1  0  0  0  0
 11 15  1  0  0  0  0
 13  5  1  0  0  0  0
 16 19  2  0  0  0  0
 16 20  1  0  0  0  0
 17 12  1  0  0  0  0
 17 16  1  0  0  0  0
 18 16  2  0  0  0  0
 21 20  1  0  0  0  0
M  RAD  3   2   2   3   3   4   2
M  END
