Coordinates from ORCA-job 4-NO2PhN2+~HSO4-_B3LYPG-6-31G_dp-CH-Scan-d09-49-n800
 OpenBabel11261919243D

 21 20  0  0  0  0  0  0  0  0999 V2000
   -1.9117   -0.3481   -0.1706 C   0  0  0  0  0  0  0  0  0  0  0  0
   -3.2082   -0.8613   -0.2508 N   0  0  0  0  0  0  0  0  0  0  0  0
   -4.2541   -1.2348   -0.3287 N   0  0  0  0  0  0  0  0  0  0  0  0
   -1.7704    0.9876   -0.5727 C   0  0  0  0  0  0  0  0  0  0  0  0
   -0.4240    1.4167   -0.4695 C   0  0  0  0  0  0  0  0  0  0  0  0
    0.5795    0.5698   -0.0204 C   0  0  0  0  0  0  0  0  0  0  0  0
    1.9734    1.0811    0.0625 N   0  0  0  0  0  0  0  0  0  0  0  0
    2.1721    2.2409   -0.2824 O   0  0  0  0  0  0  0  0  0  0  0  0
    2.8334    0.3038    0.4719 O   0  0  0  0  0  0  0  0  0  0  0  0
    0.3610   -0.7641    0.3692 C   0  0  0  0  0  0  0  0  0  0  0  0
   -0.9247   -1.2532    0.2954 C   0  0  0  0  0  0  0  0  0  0  0  0
   -3.0581    2.0389   -1.0732 H   0  0  0  0  0  0  0  0  0  0  0  0
   -0.1505    2.4300   -0.7434 H   0  0  0  0  0  0  0  0  0  0  0  0
    1.1899   -1.3685    0.7122 H   0  0  0  0  0  0  0  0  0  0  0  0
   -1.1659   -2.2719    0.5809 H   0  0  0  0  0  0  0  0  0  0  0  0
   -5.0745    2.6073   -0.4306 S   0  0  0  0  0  0  0  0  0  0  0  0
   -3.8297    2.6964   -1.3852 O   0  0  0  0  0  0  0  0  0  0  0  0
   -6.2198    3.1892   -1.1077 O   0  0  0  0  0  0  0  0  0  0  0  0
   -5.1384    1.2848    0.1828 O   0  0  0  0  0  0  0  0  0  0  0  0
   -4.6718    3.6057    0.8032 O   0  0  0  0  0  0  0  0  0  0  0  0
   -4.9544    4.4989    0.5458 H   0  0  0  0  0  0  0  0  0  0  0  0
  1 11  2  0  0  0  0
  2  1  1  0  0  0  0
  3  2  1  0  0  0  0
  4  5  2  0  0  0  0
  4  1  1  0  0  0  0
  5  6  1  0  0  0  0
  6  7  1  0  0  0  0
  6 10  2  0  0  0  0
  7  9  2  0  0  0  0
  8  7  2  0  0  0  0
 10 14  1  0  0  0  0
 11 10  1  0  0  0  0
 11 15  1  0  0  0  0
 13  5  1  0  0  0  0
 16 19  2  0  0  0  0
 16 20  1  0  0  0  0
 17 12  1  0  0  0  0
 17 16  1  0  0  0  0
 18 16  2  0  0  0  0
 21 20  1  0  0  0  0
M  RAD  3   2   2   3   3   4   2
M  END
