Coordinates from ORCA-job 4-NO2PhN2+~HSO4-_B3LYPG-6-31G_dp-CH-Scan-d09-49-n800
 OpenBabel11261919243D

 21 20  0  0  0  0  0  0  0  0999 V2000
   -1.6990   -0.5083   -0.7742 C   0  0  0  0  0  0  0  0  0  0  0  0
   -2.9057   -1.0699   -1.2286 N   0  0  0  0  0  0  0  0  0  0  0  0
   -3.8467   -1.4768   -1.6703 N   0  0  0  0  0  0  0  0  0  0  0  0
   -1.1451    0.3532   -1.7204 C   0  0  0  0  0  0  0  0  0  0  0  0
    0.0746    0.8952   -1.2136 C   0  0  0  0  0  0  0  0  0  0  0  0
    0.5576    0.5707    0.0458 C   0  0  0  0  0  0  0  0  0  0  0  0
    1.8264    1.1847    0.5178 N   0  0  0  0  0  0  0  0  0  0  0  0
    2.3771    1.9970   -0.2203 O   0  0  0  0  0  0  0  0  0  0  0  0
    2.2481    0.8420    1.6225 O   0  0  0  0  0  0  0  0  0  0  0  0
   -0.0849   -0.3223    0.9323 C   0  0  0  0  0  0  0  0  0  0  0  0
   -1.2650   -0.8962    0.5197 C   0  0  0  0  0  0  0  0  0  0  0  0
   -4.6233    2.9999   -1.9960 H   0  0  0  0  0  0  0  0  0  0  0  0
    0.6598    1.5884   -1.8116 H   0  0  0  0  0  0  0  0  0  0  0  0
    0.3552   -0.5310    1.8978 H   0  0  0  0  0  0  0  0  0  0  0  0
   -1.8188   -1.5905    1.1452 H   0  0  0  0  0  0  0  0  0  0  0  0
   -4.9845    2.4801    0.0523 S   0  0  0  0  0  0  0  0  0  0  0  0
   -5.1961    3.3568   -1.2943 O   0  0  0  0  0  0  0  0  0  0  0  0
   -6.0805    2.8354    0.9249 O   0  0  0  0  0  0  0  0  0  0  0  0
   -4.6555    1.1195   -0.3208 O   0  0  0  0  0  0  0  0  0  0  0  0
   -3.6099    3.1042    0.6466 O   0  0  0  0  0  0  0  0  0  0  0  0
   -3.8305    3.9170    1.1340 H   0  0  0  0  0  0  0  0  0  0  0  0
  1 11  2  0  0  0  0
  2  1  1  0  0  0  0
  3  2  1  0  0  0  0
  4  5  2  0  0  0  0
  4  1  1  0  0  0  0
  5  6  1  0  0  0  0
  6  7  1  0  0  0  0
  6 10  2  0  0  0  0
  7  9  2  0  0  0  0
  8  7  2  0  0  0  0
 10 14  1  0  0  0  0
 11 10  1  0  0  0  0
 11 15  1  0  0  0  0
 12 17  1  0  0  0  0
 13  5  1  0  0  0  0
 16 20  1  0  0  0  0
 16 18  2  0  0  0  0
 17 16  1  0  0  0  0
 19 16  2  0  0  0  0
 20 21  1  0  0  0  0
M  RAD  3   2   2   3   3   4   2
M  END
