Coordinates from ORCA-job 4-NO2PhN2+~HSO4-_B3LYPG-6-31G_dp-CH-Scan-d09-49-n800
 OpenBabel11261919243D

 21 20  0  0  0  0  0  0  0  0999 V2000
   -2.0082    0.0416   -0.3316 C   0  0  0  0  0  0  0  0  0  0  0  0
   -3.3604   -0.2333   -0.5167 N   0  0  0  0  0  0  0  0  0  0  0  0
   -4.4315   -0.4800   -0.7280 N   0  0  0  0  0  0  0  0  0  0  0  0
   -1.5239    1.3174   -0.6559 C   0  0  0  0  0  0  0  0  0  0  0  0
   -0.1566    1.5272   -0.4971 C   0  0  0  0  0  0  0  0  0  0  0  0
    0.6415    0.4909   -0.0189 C   0  0  0  0  0  0  0  0  0  0  0  0
    2.0956    0.7345    0.1530 N   0  0  0  0  0  0  0  0  0  0  0  0
    2.5168    1.8457   -0.1467 O   0  0  0  0  0  0  0  0  0  0  0  0
    2.7706   -0.1974    0.5815 O   0  0  0  0  0  0  0  0  0  0  0  0
    0.1457   -0.7729    0.3092 C   0  0  0  0  0  0  0  0  0  0  0  0
   -1.2094   -1.0131    0.1448 C   0  0  0  0  0  0  0  0  0  0  0  0
   -2.2943    2.1838   -1.0370 H   0  0  0  0  0  0  0  0  0  0  0  0
    0.2911    2.4854   -0.7284 H   0  0  0  0  0  0  0  0  0  0  0  0
    0.8194   -1.5353    0.6773 H   0  0  0  0  0  0  0  0  0  0  0  0
   -1.6445   -1.9777    0.3798 H   0  0  0  0  0  0  0  0  0  0  0  0
   -4.7315    2.5326   -0.2553 S   0  0  0  0  0  0  0  0  0  0  0  0
   -3.8674    3.1268   -1.3015 O   0  0  0  0  0  0  0  0  0  0  0  0
   -5.7183    1.5264   -0.7577 O   0  0  0  0  0  0  0  0  0  0  0  0
   -3.9683    2.0094    0.9046 O   0  0  0  0  0  0  0  0  0  0  0  0
   -5.6315    3.8045    0.2611 O   0  0  0  0  0  0  0  0  0  0  0  0
   -6.3816    3.4325    0.7524 H   0  0  0  0  0  0  0  0  0  0  0  0
  1 11  2  0  0  0  0
  2  1  1  0  0  0  0
  3  2  1  0  0  0  0
  4  5  2  0  0  0  0
  4  1  1  0  0  0  0
  5  6  1  0  0  0  0
  6  7  1  0  0  0  0
  6 10  2  0  0  0  0
  7  9  2  0  0  0  0
  8  7  2  0  0  0  0
 10 14  1  0  0  0  0
 11 10  1  0  0  0  0
 11 15  1  0  0  0  0
 12  4  1  0  0  0  0
 13  5  1  0  0  0  0
 16 20  1  0  0  0  0
 16 19  1  0  0  0  0
 17 16  2  0  0  0  0
 18 16  2  0  0  0  0
 20 21  1  0  0  0  0
M  RAD  3   2   2   3   3  19   2
M  END
