Coordinates from ORCA-job 4-NO2PhN2+~HSO4-_B3LYPG-6-31G_dp-CH-Scan-d09-49-n800
 OpenBabel11261919243D

 21 20  0  0  0  0  0  0  0  0999 V2000
   -1.5917   -0.4275   -0.2466 C   0  0  0  0  0  0  0  0  0  0  0  0
   -2.9234   -0.8503   -0.4067 N   0  0  0  0  0  0  0  0  0  0  0  0
   -3.9895   -1.1326   -0.5764 N   0  0  0  0  0  0  0  0  0  0  0  0
   -1.3448    0.8060   -0.8523 C   0  0  0  0  0  0  0  0  0  0  0  0
    0.0228    1.1667   -0.6593 C   0  0  0  0  0  0  0  0  0  0  0  0
    0.9080    0.3601    0.0403 C   0  0  0  0  0  0  0  0  0  0  0  0
    2.3178    0.8020    0.2066 N   0  0  0  0  0  0  0  0  0  0  0  0
    2.6395    1.8799   -0.2848 O   0  0  0  0  0  0  0  0  0  0  0  0
    3.0757    0.0593    0.8303 O   0  0  0  0  0  0  0  0  0  0  0  0
    0.5572   -0.8793    0.6192 C   0  0  0  0  0  0  0  0  0  0  0  0
   -0.7429   -1.3059    0.4780 C   0  0  0  0  0  0  0  0  0  0  0  0
   -4.1215    3.0562   -1.8789 H   0  0  0  0  0  0  0  0  0  0  0  0
    0.4078    2.0993   -1.0615 H   0  0  0  0  0  0  0  0  0  0  0  0
    1.3033   -1.4559    1.1490 H   0  0  0  0  0  0  0  0  0  0  0  0
   -1.0872   -2.2487    0.8929 H   0  0  0  0  0  0  0  0  0  0  0  0
   -5.6445    2.7979   -0.3925 S   0  0  0  0  0  0  0  0  0  0  0  0
   -4.9931    3.4588   -1.7188 O   0  0  0  0  0  0  0  0  0  0  0  0
   -7.0319    3.2059   -0.3992 O   0  0  0  0  0  0  0  0  0  0  0  0
   -5.2088    1.4217   -0.2780 O   0  0  0  0  0  0  0  0  0  0  0  0
   -4.8713    3.5939    0.7948 O   0  0  0  0  0  0  0  0  0  0  0  0
   -5.3280    4.4415    0.9327 H   0  0  0  0  0  0  0  0  0  0  0  0
  1 11  2  0  0  0  0
  2  1  1  0  0  0  0
  3  2  1  0  0  0  0
  4  5  2  0  0  0  0
  4  1  1  0  0  0  0
  5  6  1  0  0  0  0
  6  7  1  0  0  0  0
  6 10  2  0  0  0  0
  7  9  2  0  0  0  0
  8  7  2  0  0  0  0
 10 14  1  0  0  0  0
 11 10  1  0  0  0  0
 11 15  1  0  0  0  0
 12 17  1  0  0  0  0
 13  5  1  0  0  0  0
 16 19  2  0  0  0  0
 16 20  1  0  0  0  0
 17 16  1  0  0  0  0
 18 16  2  0  0  0  0
 20 21  1  0  0  0  0
M  RAD  3   2   2   3   3   4   2
M  END
