Coordinates from ORCA-job 4-NO2PhN2+~HSO4-_B3LYPG-6-31G_dp-CH-Scan-d09-49-n800
 OpenBabel11261919243D

 21 20  0  0  0  0  0  0  0  0999 V2000
   -1.5756   -0.4317   -0.2677 C   0  0  0  0  0  0  0  0  0  0  0  0
   -2.9074   -0.8503   -0.4417 N   0  0  0  0  0  0  0  0  0  0  0  0
   -3.9721   -1.1277   -0.6282 N   0  0  0  0  0  0  0  0  0  0  0  0
   -1.3133    0.7857   -0.8980 C   0  0  0  0  0  0  0  0  0  0  0  0
    0.0528    1.1449   -0.6905 C   0  0  0  0  0  0  0  0  0  0  0  0
    0.9219    0.3514    0.0434 C   0  0  0  0  0  0  0  0  0  0  0  0
    2.3306    0.7910    0.2239 N   0  0  0  0  0  0  0  0  0  0  0  0
    2.6663    1.8550   -0.2878 O   0  0  0  0  0  0  0  0  0  0  0  0
    3.0744    0.0595    0.8772 O   0  0  0  0  0  0  0  0  0  0  0  0
    0.5553   -0.8726    0.6452 C   0  0  0  0  0  0  0  0  0  0  0  0
   -0.7441   -1.2970    0.4917 C   0  0  0  0  0  0  0  0  0  0  0  0
   -4.2040    3.1036   -1.9199 H   0  0  0  0  0  0  0  0  0  0  0  0
    0.4491    2.0659   -1.1082 H   0  0  0  0  0  0  0  0  0  0  0  0
    1.2897   -1.4398    1.2010 H   0  0  0  0  0  0  0  0  0  0  0  0
   -1.0998   -2.2285    0.9222 H   0  0  0  0  0  0  0  0  0  0  0  0
   -5.6618    2.8014   -0.3773 S   0  0  0  0  0  0  0  0  0  0  0  0
   -5.0735    3.4917   -1.7188 O   0  0  0  0  0  0  0  0  0  0  0  0
   -7.0557    3.1832   -0.3258 O   0  0  0  0  0  0  0  0  0  0  0  0
   -5.1962    1.4324   -0.2989 O   0  0  0  0  0  0  0  0  0  0  0  0
   -4.8584    3.5968    0.7899 O   0  0  0  0  0  0  0  0  0  0  0  0
   -5.3249    4.4338    0.9569 H   0  0  0  0  0  0  0  0  0  0  0  0
  1 11  2  0  0  0  0
  2  1  1  0  0  0  0
  3  2  1  0  0  0  0
  4  5  2  0  0  0  0
  4  1  1  0  0  0  0
  5  6  1  0  0  0  0
  6  7  1  0  0  0  0
  6 10  2  0  0  0  0
  7  9  2  0  0  0  0
  8  7  2  0  0  0  0
 10 14  1  0  0  0  0
 11 10  1  0  0  0  0
 11 15  1  0  0  0  0
 12 17  1  0  0  0  0
 13  5  1  0  0  0  0
 16 18  2  0  0  0  0
 16 19  2  0  0  0  0
 16 20  1  0  0  0  0
 17 16  1  0  0  0  0
 20 21  1  0  0  0  0
M  RAD  3   2   2   3   3   4   2
M  END
