Coordinates from ORCA-job 4-NO2PhN2+~HSO4-_B3LYPG-6-31G_dp-CH-Scan-d09-49-n800
 OpenBabel11261919243D

 21 20  0  0  0  0  0  0  0  0999 V2000
   -2.0177    0.0566   -0.3507 C   0  0  0  0  0  0  0  0  0  0  0  0
   -3.3683   -0.2131   -0.5465 N   0  0  0  0  0  0  0  0  0  0  0  0
   -4.4378   -0.4615   -0.7714 N   0  0  0  0  0  0  0  0  0  0  0  0
   -1.5168    1.3234   -0.6890 C   0  0  0  0  0  0  0  0  0  0  0  0
   -0.1506    1.5269   -0.5186 C   0  0  0  0  0  0  0  0  0  0  0  0
    0.6348    0.4949   -0.0105 C   0  0  0  0  0  0  0  0  0  0  0  0
    2.0871    0.7332    0.1761 N   0  0  0  0  0  0  0  0  0  0  0  0
    2.5197    1.8348   -0.1432 O   0  0  0  0  0  0  0  0  0  0  0  0
    2.7499   -0.1927    0.6353 O   0  0  0  0  0  0  0  0  0  0  0  0
    0.1252   -0.7579    0.3332 C   0  0  0  0  0  0  0  0  0  0  0  0
   -1.2299   -0.9918    0.1534 C   0  0  0  0  0  0  0  0  0  0  0  0
   -2.1978    2.1217   -1.0668 H   0  0  0  0  0  0  0  0  0  0  0  0
    0.3047    2.4785   -0.7619 H   0  0  0  0  0  0  0  0  0  0  0  0
    0.7877   -1.5187    0.7245 H   0  0  0  0  0  0  0  0  0  0  0  0
   -1.6745   -1.9491    0.3994 H   0  0  0  0  0  0  0  0  0  0  0  0
   -4.7388    2.5416   -0.2968 S   0  0  0  0  0  0  0  0  0  0  0  0
   -3.9652    3.1862   -1.3719 O   0  0  0  0  0  0  0  0  0  0  0  0
   -5.7138    1.4987   -0.7556 O   0  0  0  0  0  0  0  0  0  0  0  0
   -3.8992    2.0204    0.8152 O   0  0  0  0  0  0  0  0  0  0  0  0
   -5.6564    3.7605    0.3097 O   0  0  0  0  0  0  0  0  0  0  0  0
   -6.2893    3.3564    0.9251 H   0  0  0  0  0  0  0  0  0  0  0  0
  1 11  2  0  0  0  0
  2  1  1  0  0  0  0
  3  2  1  0  0  0  0
  4  5  2  0  0  0  0
  4  1  1  0  0  0  0
  5  6  1  0  0  0  0
  6  7  1  0  0  0  0
  6 10  2  0  0  0  0
  7  9  2  0  0  0  0
  8  7  2  0  0  0  0
 10 14  1  0  0  0  0
 11 10  1  0  0  0  0
 11 15  1  0  0  0  0
 12  4  1  0  0  0  0
 13  5  1  0  0  0  0
 16 20  1  0  0  0  0
 16 19  1  0  0  0  0
 17 16  2  0  0  0  0
 18 16  2  0  0  0  0
 20 21  1  0  0  0  0
M  RAD  3   2   2   3   3  19   2
M  END
