Coordinates from ORCA-job 4-NO2PhN2+~HSO4-_B3LYPG-6-31G_dp-CH-Scan-d09-49-n800
 OpenBabel11261919243D

 21 20  0  0  0  0  0  0  0  0999 V2000
   -1.5912   -0.3856   -0.0981 C   0  0  0  0  0  0  0  0  0  0  0  0
   -2.9379   -0.7804   -0.1603 N   0  0  0  0  0  0  0  0  0  0  0  0
   -4.0187   -1.0460   -0.2388 N   0  0  0  0  0  0  0  0  0  0  0  0
   -1.3755    0.9024   -0.5954 C   0  0  0  0  0  0  0  0  0  0  0  0
    0.0112    1.2256   -0.5056 C   0  0  0  0  0  0  0  0  0  0  0  0
    0.9446    0.3388    0.0105 C   0  0  0  0  0  0  0  0  0  0  0  0
    2.3739    0.7440    0.0736 N   0  0  0  0  0  0  0  0  0  0  0  0
    2.6674    1.8638   -0.3339 O   0  0  0  0  0  0  0  0  0  0  0  0
    3.1743   -0.0708    0.5320 O   0  0  0  0  0  0  0  0  0  0  0  0
    0.6261   -0.9498    0.4910 C   0  0  0  0  0  0  0  0  0  0  0  0
   -0.6911   -1.3433    0.4414 C   0  0  0  0  0  0  0  0  0  0  0  0
   -3.8390    2.9973   -1.5547 H   0  0  0  0  0  0  0  0  0  0  0  0
    0.3740    2.1911   -0.8453 H   0  0  0  0  0  0  0  0  0  0  0  0
    1.4081   -1.5879    0.8794 H   0  0  0  0  0  0  0  0  0  0  0  0
   -1.0128   -2.3194    0.7923 H   0  0  0  0  0  0  0  0  0  0  0  0
   -5.7023    2.8161   -0.5150 S   0  0  0  0  0  0  0  0  0  0  0  0
   -4.7120    3.4215   -1.6397 O   0  0  0  0  0  0  0  0  0  0  0  0
   -7.0327    3.2312   -0.9020 O   0  0  0  0  0  0  0  0  0  0  0  0
   -5.3359    1.4419   -0.2391 O   0  0  0  0  0  0  0  0  0  0  0  0
   -5.2602    3.6500    0.8091 O   0  0  0  0  0  0  0  0  0  0  0  0
   -5.7168    4.5085    0.7874 H   0  0  0  0  0  0  0  0  0  0  0  0
  1 11  2  0  0  0  0
  2  1  1  0  0  0  0
  3  2  1  0  0  0  0
  4  5  2  0  0  0  0
  4  1  1  0  0  0  0
  5  6  1  0  0  0  0
  6  7  1  0  0  0  0
  6 10  2  0  0  0  0
  7  9  2  0  0  0  0
  8  7  2  0  0  0  0
 10 14  1  0  0  0  0
 11 10  1  0  0  0  0
 11 15  1  0  0  0  0
 13  5  1  0  0  0  0
 16 19  2  0  0  0  0
 16 20  1  0  0  0  0
 17 12  1  0  0  0  0
 17 16  1  0  0  0  0
 18 16  2  0  0  0  0
 21 20  1  0  0  0  0
M  RAD  3   2   2   3   3   4   2
M  END
