Coordinates from ORCA-job 4-NO2PhN2+~HSO4-_B3LYPG-6-31G_dp-CH-Scan-d09-49-n800
 OpenBabel11261919243D

 21 20  0  0  0  0  0  0  0  0999 V2000
   -1.5813   -0.3884   -0.1031 C   0  0  0  0  0  0  0  0  0  0  0  0
   -2.9290   -0.7803   -0.1692 N   0  0  0  0  0  0  0  0  0  0  0  0
   -4.0109   -1.0413   -0.2486 N   0  0  0  0  0  0  0  0  0  0  0  0
   -1.3620    0.8966   -0.6064 C   0  0  0  0  0  0  0  0  0  0  0  0
    0.0252    1.2174   -0.5124 C   0  0  0  0  0  0  0  0  0  0  0  0
    0.9547    0.3319    0.0128 C   0  0  0  0  0  0  0  0  0  0  0  0
    2.3844    0.7349    0.0803 N   0  0  0  0  0  0  0  0  0  0  0  0
    2.6814    1.8531   -0.3293 O   0  0  0  0  0  0  0  0  0  0  0  0
    3.1813   -0.0787    0.5468 O   0  0  0  0  0  0  0  0  0  0  0  0
    0.6319   -0.9537    0.4987 C   0  0  0  0  0  0  0  0  0  0  0  0
   -0.6857   -1.3452    0.4455 C   0  0  0  0  0  0  0  0  0  0  0  0
   -3.8754    3.0295   -1.5831 H   0  0  0  0  0  0  0  0  0  0  0  0
    0.3915    2.1804   -0.8559 H   0  0  0  0  0  0  0  0  0  0  0  0
    1.4111   -1.5910    0.8939 H   0  0  0  0  0  0  0  0  0  0  0  0
   -1.0107   -2.3189    0.7999 H   0  0  0  0  0  0  0  0  0  0  0  0
   -5.7182    2.8214   -0.5114 S   0  0  0  0  0  0  0  0  0  0  0  0
   -4.7554    3.4421   -1.6522 O   0  0  0  0  0  0  0  0  0  0  0  0
   -7.0600    3.2223   -0.8729 O   0  0  0  0  0  0  0  0  0  0  0  0
   -5.3302    1.4511   -0.2480 O   0  0  0  0  0  0  0  0  0  0  0  0
   -5.2613    3.6562    0.8070 O   0  0  0  0  0  0  0  0  0  0  0  0
   -5.7279    4.5095    0.7966 H   0  0  0  0  0  0  0  0  0  0  0  0
  1 11  2  0  0  0  0
  2  1  1  0  0  0  0
  3  2  1  0  0  0  0
  4  5  2  0  0  0  0
  4  1  1  0  0  0  0
  5  6  1  0  0  0  0
  6  7  1  0  0  0  0
  6 10  2  0  0  0  0
  7  9  2  0  0  0  0
  8  7  2  0  0  0  0
 10 14  1  0  0  0  0
 11 10  1  0  0  0  0
 11 15  1  0  0  0  0
 13  5  1  0  0  0  0
 16 19  2  0  0  0  0
 16 20  1  0  0  0  0
 17 12  1  0  0  0  0
 17 16  1  0  0  0  0
 18 16  2  0  0  0  0
 21 20  1  0  0  0  0
M  RAD  3   2   2   3   3   4   2
M  END
