Coordinates from ORCA-job 4-NO2PhN2+~HSO4-_B3LYPG-6-31G_dp-CH-Scan-d09-49-n800
 OpenBabel11261919243D

 21 20  0  0  0  0  0  0  0  0999 V2000
   -1.8609   -0.3582   -0.1479 C   0  0  0  0  0  0  0  0  0  0  0  0
   -3.1645   -0.8582   -0.2188 N   0  0  0  0  0  0  0  0  0  0  0  0
   -4.2158   -1.2192   -0.2909 N   0  0  0  0  0  0  0  0  0  0  0  0
   -1.7194    0.9731   -0.5628 C   0  0  0  0  0  0  0  0  0  0  0  0
   -0.3654    1.3896   -0.4659 C   0  0  0  0  0  0  0  0  0  0  0  0
    0.6333    0.5388   -0.0140 C   0  0  0  0  0  0  0  0  0  0  0  0
    2.0316    1.0393    0.0602 N   0  0  0  0  0  0  0  0  0  0  0  0
    2.2392    2.1962   -0.2900 O   0  0  0  0  0  0  0  0  0  0  0  0
    2.8883    0.2574    0.4689 O   0  0  0  0  0  0  0  0  0  0  0  0
    0.4073   -0.7919    0.3869 C   0  0  0  0  0  0  0  0  0  0  0  0
   -0.8817   -1.2712    0.3223 C   0  0  0  0  0  0  0  0  0  0  0  0
   -3.1985    2.1833   -1.1572 H   0  0  0  0  0  0  0  0  0  0  0  0
   -0.0806    2.3977   -0.7483 H   0  0  0  0  0  0  0  0  0  0  0  0
    1.2337   -1.3992    0.7305 H   0  0  0  0  0  0  0  0  0  0  0  0
   -1.1302   -2.2860    0.6161 H   0  0  0  0  0  0  0  0  0  0  0  0
   -5.1882    2.6445   -0.4566 S   0  0  0  0  0  0  0  0  0  0  0  0
   -3.9566    2.7940   -1.4453 O   0  0  0  0  0  0  0  0  0  0  0  0
   -6.3315    3.2692   -1.0928 O   0  0  0  0  0  0  0  0  0  0  0  0
   -5.2367    1.2916    0.0773 O   0  0  0  0  0  0  0  0  0  0  0  0
   -4.7490    3.5719    0.8143 O   0  0  0  0  0  0  0  0  0  0  0  0
   -5.0011    4.4865    0.6028 H   0  0  0  0  0  0  0  0  0  0  0  0
  1 11  2  0  0  0  0
  2  1  1  0  0  0  0
  3  2  1  0  0  0  0
  4  5  2  0  0  0  0
  4  1  1  0  0  0  0
  5  6  1  0  0  0  0
  6  7  1  0  0  0  0
  6 10  2  0  0  0  0
  7  9  2  0  0  0  0
  8  7  2  0  0  0  0
 10 14  1  0  0  0  0
 11 10  1  0  0  0  0
 11 15  1  0  0  0  0
 13  5  1  0  0  0  0
 16 19  2  0  0  0  0
 16 20  1  0  0  0  0
 17 12  1  0  0  0  0
 17 16  1  0  0  0  0
 18 16  2  0  0  0  0
 21 20  1  0  0  0  0
M  RAD  3   2   2   3   3   4   2
M  END
