Coordinates from ORCA-job 4-NO2PhN2+~HSO4-_B3LYPG-6-31G_dp-CH-Scan-d09-49-n800
 OpenBabel11261919243D

 21 20  0  0  0  0  0  0  0  0999 V2000
   -1.6786   -0.4956   -0.6994 C   0  0  0  0  0  0  0  0  0  0  0  0
   -2.9084   -1.0317   -1.1226 N   0  0  0  0  0  0  0  0  0  0  0  0
   -3.8737   -1.4107   -1.5350 N   0  0  0  0  0  0  0  0  0  0  0  0
   -1.1941    0.4529   -1.5995 C   0  0  0  0  0  0  0  0  0  0  0  0
    0.0542    0.9615   -1.1287 C   0  0  0  0  0  0  0  0  0  0  0  0
    0.6245    0.5292    0.0596 C   0  0  0  0  0  0  0  0  0  0  0  0
    1.9210    1.1105    0.4971 N   0  0  0  0  0  0  0  0  0  0  0  0
    2.4292    1.9727   -0.2141 O   0  0  0  0  0  0  0  0  0  0  0  0
    2.4066    0.6919    1.5479 O   0  0  0  0  0  0  0  0  0  0  0  0
    0.0474   -0.4453    0.9042 C   0  0  0  0  0  0  0  0  0  0  0  0
   -1.1557   -0.9924    0.5223 C   0  0  0  0  0  0  0  0  0  0  0  0
   -4.6558    2.9953   -2.0565 H   0  0  0  0  0  0  0  0  0  0  0  0
    0.5930    1.7134   -1.6986 H   0  0  0  0  0  0  0  0  0  0  0  0
    0.5528   -0.7341    1.8157 H   0  0  0  0  0  0  0  0  0  0  0  0
   -1.6621   -1.7456    1.1191 H   0  0  0  0  0  0  0  0  0  0  0  0
   -5.1023    2.5465   -0.0080 S   0  0  0  0  0  0  0  0  0  0  0  0
   -5.2690    3.3645   -1.3972 O   0  0  0  0  0  0  0  0  0  0  0  0
   -6.2446    2.9137    0.7982 O   0  0  0  0  0  0  0  0  0  0  0  0
   -4.7301    1.1790   -0.3075 O   0  0  0  0  0  0  0  0  0  0  0  0
   -3.7700    3.2242    0.6234 O   0  0  0  0  0  0  0  0  0  0  0  0
   -4.0312    4.0491    1.0684 H   0  0  0  0  0  0  0  0  0  0  0  0
  1 11  2  0  0  0  0
  2  1  1  0  0  0  0
  3  2  1  0  0  0  0
  4  5  2  0  0  0  0
  4  1  1  0  0  0  0
  5  6  1  0  0  0  0
  6  7  1  0  0  0  0
  6 10  2  0  0  0  0
  7  9  2  0  0  0  0
  8  7  2  0  0  0  0
 10 14  1  0  0  0  0
 11 10  1  0  0  0  0
 11 15  1  0  0  0  0
 12 17  1  0  0  0  0
 13  5  1  0  0  0  0
 16 20  1  0  0  0  0
 16 18  2  0  0  0  0
 17 16  1  0  0  0  0
 19 16  2  0  0  0  0
 20 21  1  0  0  0  0
M  RAD  3   2   2   3   3   4   2
M  END
