Coordinates from ORCA-job 4-NO2PhN2+~HSO4-_B3LYPG-6-31G_dp-CH-Scan-d09-49-n800
 OpenBabel11261919243D

 21 20  0  0  0  0  0  0  0  0999 V2000
   -1.8934   -0.3530   -0.1621 C   0  0  0  0  0  0  0  0  0  0  0  0
   -3.1920   -0.8628   -0.2388 N   0  0  0  0  0  0  0  0  0  0  0  0
   -4.2396   -1.2326   -0.3149 N   0  0  0  0  0  0  0  0  0  0  0  0
   -1.7541    0.9811   -0.5698 C   0  0  0  0  0  0  0  0  0  0  0  0
   -0.4050    1.4066   -0.4686 C   0  0  0  0  0  0  0  0  0  0  0  0
    0.5976    0.5597   -0.0177 C   0  0  0  0  0  0  0  0  0  0  0  0
    1.9925    1.0685    0.0621 N   0  0  0  0  0  0  0  0  0  0  0  0
    2.1935    2.2272   -0.2854 O   0  0  0  0  0  0  0  0  0  0  0  0
    2.8522    0.2905    0.4716 O   0  0  0  0  0  0  0  0  0  0  0  0
    0.3777   -0.7732    0.3768 C   0  0  0  0  0  0  0  0  0  0  0  0
   -0.9086   -1.2600    0.3063 C   0  0  0  0  0  0  0  0  0  0  0  0
   -3.1145    2.0913   -1.1068 H   0  0  0  0  0  0  0  0  0  0  0  0
   -0.1278    2.4180   -0.7461 H   0  0  0  0  0  0  0  0  0  0  0  0
    1.2063   -1.3775    0.7206 H   0  0  0  0  0  0  0  0  0  0  0  0
   -1.1516   -2.2774    0.5953 H   0  0  0  0  0  0  0  0  0  0  0  0
   -5.1164    2.6212   -0.4409 S   0  0  0  0  0  0  0  0  0  0  0  0
   -3.8761    2.7288   -1.4101 O   0  0  0  0  0  0  0  0  0  0  0  0
   -6.2569    3.2280   -1.1018 O   0  0  0  0  0  0  0  0  0  0  0  0
   -5.1812    1.2856    0.1390 O   0  0  0  0  0  0  0  0  0  0  0  0
   -4.6933    3.5871    0.8095 O   0  0  0  0  0  0  0  0  0  0  0  0
   -4.9558    4.4918    0.5706 H   0  0  0  0  0  0  0  0  0  0  0  0
  1 11  2  0  0  0  0
  2  1  1  0  0  0  0
  3  2  1  0  0  0  0
  4  5  2  0  0  0  0
  4  1  1  0  0  0  0
  5  6  1  0  0  0  0
  6  7  1  0  0  0  0
  6 10  2  0  0  0  0
  7  9  2  0  0  0  0
  8  7  2  0  0  0  0
 10 14  1  0  0  0  0
 11 10  1  0  0  0  0
 11 15  1  0  0  0  0
 13  5  1  0  0  0  0
 16 19  2  0  0  0  0
 16 20  1  0  0  0  0
 17 12  1  0  0  0  0
 17 16  1  0  0  0  0
 18 16  2  0  0  0  0
 21 20  1  0  0  0  0
M  RAD  3   2   2   3   3   4   2
M  END
