Coordinates from ORCA-job 4-NO2PhN2+~HSO4-_B3LYPG-6-31G_dp-CH-Scan-d09-49-n800
 OpenBabel11261919243D

 21 20  0  0  0  0  0  0  0  0999 V2000
   -1.7266   -0.3703   -0.1131 C   0  0  0  0  0  0  0  0  0  0  0  0
   -3.0520   -0.8202   -0.1749 N   0  0  0  0  0  0  0  0  0  0  0  0
   -4.1178   -1.1397   -0.2454 N   0  0  0  0  0  0  0  0  0  0  0  0
   -1.5515    0.9434   -0.5633 C   0  0  0  0  0  0  0  0  0  0  0  0
   -0.1794    1.3133   -0.4761 C   0  0  0  0  0  0  0  0  0  0  0  0
    0.7901    0.4407   -0.0038 C   0  0  0  0  0  0  0  0  0  0  0  0
    2.2053    0.8933    0.0573 N   0  0  0  0  0  0  0  0  0  0  0  0
    2.4543    2.0340   -0.3197 O   0  0  0  0  0  0  0  0  0  0  0  0
    3.0365    0.0931    0.4844 O   0  0  0  0  0  0  0  0  0  0  0  0
    0.5207   -0.8730    0.4322 C   0  0  0  0  0  0  0  0  0  0  0  0
   -0.7831   -1.3098    0.3813 C   0  0  0  0  0  0  0  0  0  0  0  0
   -3.4960    2.5714   -1.3395 H   0  0  0  0  0  0  0  0  0  0  0  0
    0.1436    2.3030   -0.7832 H   0  0  0  0  0  0  0  0  0  0  0  0
    1.3276   -1.4980    0.7900 H   0  0  0  0  0  0  0  0  0  0  0  0
   -1.0660   -2.3081    0.7008 H   0  0  0  0  0  0  0  0  0  0  0  0
   -5.4570    2.7329   -0.4925 S   0  0  0  0  0  0  0  0  0  0  0  0
   -4.2985    3.1005   -1.5418 O   0  0  0  0  0  0  0  0  0  0  0  0
   -6.6789    3.2912   -1.0317 O   0  0  0  0  0  0  0  0  0  0  0  0
   -5.3287    1.3468   -0.0837 O   0  0  0  0  0  0  0  0  0  0  0  0
   -5.0278    3.5996    0.8176 O   0  0  0  0  0  0  0  0  0  0  0  0
   -5.3614    4.5047    0.6941 H   0  0  0  0  0  0  0  0  0  0  0  0
  1 11  2  0  0  0  0
  2  1  1  0  0  0  0
  3  2  1  0  0  0  0
  4  5  2  0  0  0  0
  4  1  1  0  0  0  0
  5  6  1  0  0  0  0
  6  7  1  0  0  0  0
  6 10  2  0  0  0  0
  7  9  2  0  0  0  0
  8  7  2  0  0  0  0
 10 14  1  0  0  0  0
 11 10  1  0  0  0  0
 11 15  1  0  0  0  0
 13  5  1  0  0  0  0
 16 19  2  0  0  0  0
 16 20  1  0  0  0  0
 17 12  1  0  0  0  0
 17 16  1  0  0  0  0
 18 16  2  0  0  0  0
 21 20  1  0  0  0  0
M  RAD  3   2   2   3   3   4   2
M  END
