Coordinates from ORCA-job 4-NO2PhN2+~HSO4-_B3LYPG-6-31G_dp-CH-Scan-d09-49-n800
 OpenBabel11261919243D

 21 20  0  0  0  0  0  0  0  0999 V2000
   -2.0077    0.0403   -0.3305 C   0  0  0  0  0  0  0  0  0  0  0  0
   -3.3599   -0.2352   -0.5148 N   0  0  0  0  0  0  0  0  0  0  0  0
   -4.4312   -0.4817   -0.7252 N   0  0  0  0  0  0  0  0  0  0  0  0
   -1.5248    1.3168   -0.6537 C   0  0  0  0  0  0  0  0  0  0  0  0
   -0.1575    1.5272   -0.4955 C   0  0  0  0  0  0  0  0  0  0  0  0
    0.6416    0.4908   -0.0193 C   0  0  0  0  0  0  0  0  0  0  0  0
    2.0958    0.7350    0.1518 N   0  0  0  0  0  0  0  0  0  0  0  0
    2.5161    1.8470   -0.1464 O   0  0  0  0  0  0  0  0  0  0  0  0
    2.7717   -0.1971    0.5783 O   0  0  0  0  0  0  0  0  0  0  0  0
    0.1470   -0.7738    0.3075 C   0  0  0  0  0  0  0  0  0  0  0  0
   -1.2081   -1.0147    0.1441 C   0  0  0  0  0  0  0  0  0  0  0  0
   -2.3002    2.1861   -1.0343 H   0  0  0  0  0  0  0  0  0  0  0  0
    0.2895    2.4859   -0.7259 H   0  0  0  0  0  0  0  0  0  0  0  0
    0.8216   -1.5362    0.6741 H   0  0  0  0  0  0  0  0  0  0  0  0
   -1.6424   -1.9799    0.3782 H   0  0  0  0  0  0  0  0  0  0  0  0
   -4.7314    2.5323   -0.2536 S   0  0  0  0  0  0  0  0  0  0  0  0
   -3.8620    3.1233   -1.2980 O   0  0  0  0  0  0  0  0  0  0  0  0
   -5.7186    1.5282   -0.7587 O   0  0  0  0  0  0  0  0  0  0  0  0
   -3.9727    2.0091    0.9091 O   0  0  0  0  0  0  0  0  0  0  0  0
   -5.6297    3.8074    0.2574 O   0  0  0  0  0  0  0  0  0  0  0  0
   -6.3839    3.4381    0.7443 H   0  0  0  0  0  0  0  0  0  0  0  0
  1 11  2  0  0  0  0
  2  1  1  0  0  0  0
  3  2  1  0  0  0  0
  4  5  2  0  0  0  0
  4  1  1  0  0  0  0
  5  6  1  0  0  0  0
  6  7  1  0  0  0  0
  6 10  2  0  0  0  0
  7  9  2  0  0  0  0
  8  7  2  0  0  0  0
 10 14  1  0  0  0  0
 11 10  1  0  0  0  0
 11 15  1  0  0  0  0
 12  4  1  0  0  0  0
 13  5  1  0  0  0  0
 16 20  1  0  0  0  0
 16 19  1  0  0  0  0
 17 16  2  0  0  0  0
 18 16  2  0  0  0  0
 20 21  1  0  0  0  0
M  RAD  3   2   2   3   3  19   2
M  END
