Coordinates from ORCA-job 4-NO2PhN2+~HSO4-_B3LYPG-6-31G_dp-CH-Scan-d09-49-n800
 OpenBabel11261919243D

 21 20  0  0  0  0  0  0  0  0999 V2000
   -1.5743   -0.4318   -0.2697 C   0  0  0  0  0  0  0  0  0  0  0  0
   -2.9062   -0.8500   -0.4446 N   0  0  0  0  0  0  0  0  0  0  0  0
   -3.9711   -1.1271   -0.6304 N   0  0  0  0  0  0  0  0  0  0  0  0
   -1.3108    0.7846   -0.9012 C   0  0  0  0  0  0  0  0  0  0  0  0
    0.0553    1.1434   -0.6927 C   0  0  0  0  0  0  0  0  0  0  0  0
    0.9231    0.3504    0.0432 C   0  0  0  0  0  0  0  0  0  0  0  0
    2.3319    0.7895    0.2246 N   0  0  0  0  0  0  0  0  0  0  0  0
    2.6677    1.8546   -0.2849 O   0  0  0  0  0  0  0  0  0  0  0  0
    3.0737    0.0603    0.8827 O   0  0  0  0  0  0  0  0  0  0  0  0
    0.5553   -0.8726    0.6461 C   0  0  0  0  0  0  0  0  0  0  0  0
   -0.7442   -1.2966    0.4917 C   0  0  0  0  0  0  0  0  0  0  0  0
   -4.2118    3.1059   -1.9241 H   0  0  0  0  0  0  0  0  0  0  0  0
    0.4525    2.0636   -1.1113 H   0  0  0  0  0  0  0  0  0  0  0  0
    1.2888   -1.4394    1.2035 H   0  0  0  0  0  0  0  0  0  0  0  0
   -1.1008   -2.2274    0.9230 H   0  0  0  0  0  0  0  0  0  0  0  0
   -5.6631    2.8016   -0.3756 S   0  0  0  0  0  0  0  0  0  0  0  0
   -5.0810    3.4928   -1.7194 O   0  0  0  0  0  0  0  0  0  0  0  0
   -7.0573    3.1815   -0.3187 O   0  0  0  0  0  0  0  0  0  0  0  0
   -5.1954    1.4332   -0.2992 O   0  0  0  0  0  0  0  0  0  0  0  0
   -4.8562    3.5979    0.7884 O   0  0  0  0  0  0  0  0  0  0  0  0
   -5.3230    4.4345    0.9573 H   0  0  0  0  0  0  0  0  0  0  0  0
  1 11  2  0  0  0  0
  2  1  1  0  0  0  0
  3  2  1  0  0  0  0
  4  5  2  0  0  0  0
  4  1  1  0  0  0  0
  5  6  1  0  0  0  0
  6  7  1  0  0  0  0
  6 10  2  0  0  0  0
  7  9  2  0  0  0  0
  8  7  2  0  0  0  0
 10 14  1  0  0  0  0
 11 10  1  0  0  0  0
 11 15  1  0  0  0  0
 12 17  1  0  0  0  0
 13  5  1  0  0  0  0
 16 18  2  0  0  0  0
 16 19  2  0  0  0  0
 16 20  1  0  0  0  0
 17 16  1  0  0  0  0
 20 21  1  0  0  0  0
M  RAD  3   2   2   3   3   4   2
M  END
