Coordinates from ORCA-job 4-NO2PhN2+~HSO4-_B3LYPG-6-31G_dp-CH-Scan-d09-49-n800
 OpenBabel11261919243D

 21 20  0  0  0  0  0  0  0  0999 V2000
   -1.6606   -0.3767   -0.1014 C   0  0  0  0  0  0  0  0  0  0  0  0
   -2.9967   -0.8002   -0.1608 N   0  0  0  0  0  0  0  0  0  0  0  0
   -4.0697   -1.0956   -0.2334 N   0  0  0  0  0  0  0  0  0  0  0  0
   -1.4662    0.9244   -0.5762 C   0  0  0  0  0  0  0  0  0  0  0  0
   -0.0860    1.2704   -0.4909 C   0  0  0  0  0  0  0  0  0  0  0  0
    0.8664    0.3903    0.0014 C   0  0  0  0  0  0  0  0  0  0  0  0
    2.2893    0.8187    0.0595 N   0  0  0  0  0  0  0  0  0  0  0  0
    2.5604    1.9481   -0.3362 O   0  0  0  0  0  0  0  0  0  0  0  0
    3.1057    0.0115    0.5022 O   0  0  0  0  0  0  0  0  0  0  0  0
    0.5731   -0.9109    0.4615 C   0  0  0  0  0  0  0  0  0  0  0  0
   -0.7378   -1.3257    0.4145 C   0  0  0  0  0  0  0  0  0  0  0  0
   -3.6507    2.7873   -1.4382 H   0  0  0  0  0  0  0  0  0  0  0  0
    0.2569    2.2480   -0.8155 H   0  0  0  0  0  0  0  0  0  0  0  0
    1.3682   -1.5427    0.8335 H   0  0  0  0  0  0  0  0  0  0  0  0
   -1.0398   -2.3128    0.7512 H   0  0  0  0  0  0  0  0  0  0  0  0
   -5.5793    2.7745   -0.5090 S   0  0  0  0  0  0  0  0  0  0  0  0
   -4.4873    3.2698   -1.5861 O   0  0  0  0  0  0  0  0  0  0  0  0
   -6.8533    3.2711   -0.9818 O   0  0  0  0  0  0  0  0  0  0  0  0
   -5.3367    1.3857   -0.1718 O   0  0  0  0  0  0  0  0  0  0  0  0
   -5.1552    3.6136    0.8189 O   0  0  0  0  0  0  0  0  0  0  0  0
   -5.5476    4.5005    0.7474 H   0  0  0  0  0  0  0  0  0  0  0  0
  1 11  2  0  0  0  0
  2  1  1  0  0  0  0
  3  2  1  0  0  0  0
  4  5  2  0  0  0  0
  4  1  1  0  0  0  0
  5  6  1  0  0  0  0
  6  7  1  0  0  0  0
  6 10  2  0  0  0  0
  7  9  2  0  0  0  0
  8  7  2  0  0  0  0
 10 14  1  0  0  0  0
 11 10  1  0  0  0  0
 11 15  1  0  0  0  0
 13  5  1  0  0  0  0
 16 19  2  0  0  0  0
 16 20  1  0  0  0  0
 17 12  1  0  0  0  0
 17 16  1  0  0  0  0
 18 16  2  0  0  0  0
 21 20  1  0  0  0  0
M  RAD  3   2   2   3   3   4   2
M  END
