Coordinates from ORCA-job 4-NO2PhN2+~HSO4-_B3LYPG-6-31G_dp-CH-Scan-d09-49-n800
 OpenBabel11261919243D

 21 20  0  0  0  0  0  0  0  0999 V2000
   -1.6983   -0.3725   -0.1065 C   0  0  0  0  0  0  0  0  0  0  0  0
   -3.0283   -0.8110   -0.1663 N   0  0  0  0  0  0  0  0  0  0  0  0
   -4.0974   -1.1203   -0.2361 N   0  0  0  0  0  0  0  0  0  0  0  0
   -1.5150    0.9360   -0.5672 C   0  0  0  0  0  0  0  0  0  0  0  0
   -0.1391    1.2952   -0.4818 C   0  0  0  0  0  0  0  0  0  0  0  0
    0.8232    0.4189   -0.0020 C   0  0  0  0  0  0  0  0  0  0  0  0
    2.2420    0.8607    0.0565 N   0  0  0  0  0  0  0  0  0  0  0  0
    2.5006    1.9964   -0.3293 O   0  0  0  0  0  0  0  0  0  0  0  0
    3.0670    0.0572    0.4895 O   0  0  0  0  0  0  0  0  0  0  0  0
    0.5436   -0.8896    0.4443 C   0  0  0  0  0  0  0  0  0  0  0  0
   -0.7634   -1.3165    0.3962 C   0  0  0  0  0  0  0  0  0  0  0  0
   -3.5589    2.6648   -1.3791 H   0  0  0  0  0  0  0  0  0  0  0  0
    0.1925    2.2797   -0.7965 H   0  0  0  0  0  0  0  0  0  0  0  0
    1.3456   -1.5177    0.8075 H   0  0  0  0  0  0  0  0  0  0  0  0
   -1.0546   -2.3101    0.7232 H   0  0  0  0  0  0  0  0  0  0  0  0
   -5.5104    2.7510   -0.5016 S   0  0  0  0  0  0  0  0  0  0  0  0
   -4.3751    3.1756   -1.5592 O   0  0  0  0  0  0  0  0  0  0  0  0
   -6.7531    3.2860   -1.0154 O   0  0  0  0  0  0  0  0  0  0  0  0
   -5.3351    1.3615   -0.1258 O   0  0  0  0  0  0  0  0  0  0  0  0
   -5.0873    3.6027    0.8195 O   0  0  0  0  0  0  0  0  0  0  0  0
   -5.4453    4.5012    0.7191 H   0  0  0  0  0  0  0  0  0  0  0  0
  1 11  2  0  0  0  0
  2  1  1  0  0  0  0
  3  2  1  0  0  0  0
  4  5  2  0  0  0  0
  4  1  1  0  0  0  0
  5  6  1  0  0  0  0
  6  7  1  0  0  0  0
  6 10  2  0  0  0  0
  7  9  2  0  0  0  0
  8  7  2  0  0  0  0
 10 14  1  0  0  0  0
 11 10  1  0  0  0  0
 11 15  1  0  0  0  0
 13  5  1  0  0  0  0
 16 19  2  0  0  0  0
 16 20  1  0  0  0  0
 17 12  1  0  0  0  0
 17 16  1  0  0  0  0
 18 16  2  0  0  0  0
 21 20  1  0  0  0  0
M  RAD  3   2   2   3   3   4   2
M  END
