Coordinates from ORCA-job 4-NO2PhN2+~HSO4-_B3LYPG-6-31G_dp-CH-Scan-d09-49-n800
 OpenBabel11261919243D

 21 20  0  0  0  0  0  0  0  0999 V2000
   -2.0148    0.0539   -0.3448 C   0  0  0  0  0  0  0  0  0  0  0  0
   -3.3660   -0.2169   -0.5373 N   0  0  0  0  0  0  0  0  0  0  0  0
   -4.4357   -0.4661   -0.7578 N   0  0  0  0  0  0  0  0  0  0  0  0
   -1.5175    1.3228   -0.6790 C   0  0  0  0  0  0  0  0  0  0  0  0
   -0.1509    1.5274   -0.5124 C   0  0  0  0  0  0  0  0  0  0  0  0
    0.6376    0.4934   -0.0133 C   0  0  0  0  0  0  0  0  0  0  0  0
    2.0907    0.7321    0.1685 N   0  0  0  0  0  0  0  0  0  0  0  0
    2.5207    1.8362   -0.1453 O   0  0  0  0  0  0  0  0  0  0  0  0
    2.7565   -0.1961    0.6186 O   0  0  0  0  0  0  0  0  0  0  0  0
    0.1312   -0.7623    0.3259 C   0  0  0  0  0  0  0  0  0  0  0  0
   -1.2242   -0.9969    0.1509 C   0  0  0  0  0  0  0  0  0  0  0  0
   -2.2259    2.1452   -1.0598 H   0  0  0  0  0  0  0  0  0  0  0  0
    0.3028    2.4805   -0.7524 H   0  0  0  0  0  0  0  0  0  0  0  0
    0.7965   -1.5241    0.7103 H   0  0  0  0  0  0  0  0  0  0  0  0
   -1.6666   -1.9561    0.3938 H   0  0  0  0  0  0  0  0  0  0  0  0
   -4.7359    2.5377   -0.2822 S   0  0  0  0  0  0  0  0  0  0  0  0
   -3.9343    3.1660   -1.3497 O   0  0  0  0  0  0  0  0  0  0  0  0
   -5.7159    1.5061   -0.7530 O   0  0  0  0  0  0  0  0  0  0  0  0
   -3.9192    2.0156    0.8448 O   0  0  0  0  0  0  0  0  0  0  0  0
   -5.6490    3.7734    0.2960 O   0  0  0  0  0  0  0  0  0  0  0  0
   -6.3269    3.3774    0.8670 H   0  0  0  0  0  0  0  0  0  0  0  0
  1 11  2  0  0  0  0
  2  1  1  0  0  0  0
  3  2  1  0  0  0  0
  4  5  2  0  0  0  0
  4  1  1  0  0  0  0
  5  6  1  0  0  0  0
  6  7  1  0  0  0  0
  6 10  2  0  0  0  0
  7  9  2  0  0  0  0
  8  7  2  0  0  0  0
 10 14  1  0  0  0  0
 11 10  1  0  0  0  0
 11 15  1  0  0  0  0
 12  4  1  0  0  0  0
 13  5  1  0  0  0  0
 16 20  1  0  0  0  0
 16 19  1  0  0  0  0
 17 16  2  0  0  0  0
 18 16  2  0  0  0  0
 20 21  1  0  0  0  0
M  RAD  3   2   2   3   3  19   2
M  END
