Coordinates from ORCA-job 4-NO2PhN2+~HSO4-_B3LYPG-6-31G_dp-CH-Scan-d09-49-n800
 OpenBabel11261919243D

 21 20  0  0  0  0  0  0  0  0999 V2000
   -1.8670   -0.3574   -0.1506 C   0  0  0  0  0  0  0  0  0  0  0  0
   -3.1696   -0.8594   -0.2226 N   0  0  0  0  0  0  0  0  0  0  0  0
   -4.2202   -1.2221   -0.2955 N   0  0  0  0  0  0  0  0  0  0  0  0
   -1.7262    0.9745   -0.5641 C   0  0  0  0  0  0  0  0  0  0  0  0
   -0.3730    1.3928   -0.4663 C   0  0  0  0  0  0  0  0  0  0  0  0
    0.6264    0.5429   -0.0146 C   0  0  0  0  0  0  0  0  0  0  0  0
    2.0241    1.0451    0.0607 N   0  0  0  0  0  0  0  0  0  0  0  0
    2.2302    2.2025   -0.2886 O   0  0  0  0  0  0  0  0  0  0  0  0
    2.8815    0.2640    0.4694 O   0  0  0  0  0  0  0  0  0  0  0  0
    0.4018   -0.7883    0.3851 C   0  0  0  0  0  0  0  0  0  0  0  0
   -0.8867   -1.2692    0.3193 C   0  0  0  0  0  0  0  0  0  0  0  0
   -3.1839    2.1660   -1.1485 H   0  0  0  0  0  0  0  0  0  0  0  0
   -0.0897    2.4016   -0.7477 H   0  0  0  0  0  0  0  0  0  0  0  0
    1.2287   -1.3950    0.7287 H   0  0  0  0  0  0  0  0  0  0  0  0
   -1.1339   -2.2846    0.6122 H   0  0  0  0  0  0  0  0  0  0  0  0
   -5.1750    2.6400   -0.4536 S   0  0  0  0  0  0  0  0  0  0  0  0
   -3.9420    2.7809   -1.4395 O   0  0  0  0  0  0  0  0  0  0  0  0
   -6.3173    3.2626   -1.0941 O   0  0  0  0  0  0  0  0  0  0  0  0
   -5.2274    1.2903    0.0888 O   0  0  0  0  0  0  0  0  0  0  0  0
   -4.7374    3.5741    0.8134 O   0  0  0  0  0  0  0  0  0  0  0  0
   -4.9899    4.4874    0.5967 H   0  0  0  0  0  0  0  0  0  0  0  0
  1 11  2  0  0  0  0
  2  1  1  0  0  0  0
  3  2  1  0  0  0  0
  4  5  2  0  0  0  0
  4  1  1  0  0  0  0
  5  6  1  0  0  0  0
  6  7  1  0  0  0  0
  6 10  2  0  0  0  0
  7  9  2  0  0  0  0
  8  7  2  0  0  0  0
 10 14  1  0  0  0  0
 11 10  1  0  0  0  0
 11 15  1  0  0  0  0
 13  5  1  0  0  0  0
 16 19  2  0  0  0  0
 16 20  1  0  0  0  0
 17 12  1  0  0  0  0
 17 16  1  0  0  0  0
 18 16  2  0  0  0  0
 21 20  1  0  0  0  0
M  RAD  3   2   2   3   3   4   2
M  END
