Coordinates from ORCA-job 4-NO2PhN2+~HSO4-_B3LYPG-6-31G_dp-CH-Scan-d09-49-n800
 OpenBabel11261919243D

 21 20  0  0  0  0  0  0  0  0999 V2000
   -1.6886   -0.5018   -0.6599 C   0  0  0  0  0  0  0  0  0  0  0  0
   -2.9251   -1.0397   -1.0599 N   0  0  0  0  0  0  0  0  0  0  0  0
   -3.8987   -1.4202   -1.4507 N   0  0  0  0  0  0  0  0  0  0  0  0
   -1.2495    0.4919   -1.5344 C   0  0  0  0  0  0  0  0  0  0  0  0
    0.0078    0.9984   -1.0862 C   0  0  0  0  0  0  0  0  0  0  0  0
    0.6252    0.5265    0.0628 C   0  0  0  0  0  0  0  0  0  0  0  0
    1.9275    1.1094    0.4797 N   0  0  0  0  0  0  0  0  0  0  0  0
    2.3920    2.0170   -0.2044 O   0  0  0  0  0  0  0  0  0  0  0  0
    2.4634    0.6441    1.4855 O   0  0  0  0  0  0  0  0  0  0  0  0
    0.0925   -0.4923    0.8839 C   0  0  0  0  0  0  0  0  0  0  0  0
   -1.1150   -1.0420    0.5201 C   0  0  0  0  0  0  0  0  0  0  0  0
   -4.5671    3.0006   -2.0732 H   0  0  0  0  0  0  0  0  0  0  0  0
    0.5165    1.7809   -1.6423 H   0  0  0  0  0  0  0  0  0  0  0  0
    0.6339   -0.8117    1.7641 H   0  0  0  0  0  0  0  0  0  0  0  0
   -1.5880   -1.8293    1.0999 H   0  0  0  0  0  0  0  0  0  0  0  0
   -5.1199    2.5707   -0.0457 S   0  0  0  0  0  0  0  0  0  0  0  0
   -5.2094    3.3789   -1.4476 O   0  0  0  0  0  0  0  0  0  0  0  0
   -6.2963    2.9580    0.7000 O   0  0  0  0  0  0  0  0  0  0  0  0
   -4.7495    1.1960   -0.3134 O   0  0  0  0  0  0  0  0  0  0  0  0
   -3.8125    3.2400    0.6448 O   0  0  0  0  0  0  0  0  0  0  0  0
   -4.0858    4.0735    1.0658 H   0  0  0  0  0  0  0  0  0  0  0  0
  1 11  2  0  0  0  0
  2  1  1  0  0  0  0
  3  2  1  0  0  0  0
  4  5  2  0  0  0  0
  4  1  1  0  0  0  0
  5  6  1  0  0  0  0
  6  7  1  0  0  0  0
  6 10  2  0  0  0  0
  7  9  2  0  0  0  0
  8  7  2  0  0  0  0
 10 14  1  0  0  0  0
 11 10  1  0  0  0  0
 11 15  1  0  0  0  0
 12 17  1  0  0  0  0
 13  5  1  0  0  0  0
 16 20  1  0  0  0  0
 16 18  2  0  0  0  0
 17 16  1  0  0  0  0
 19 16  2  0  0  0  0
 20 21  1  0  0  0  0
M  RAD  3   2   2   3   3   4   2
M  END
