Coordinates from ORCA-job 4-NO2PhN2+~HSO4-_B3LYPG-6-31G_dp-CH-Scan-d09-49-n800
 OpenBabel11261919243D

 21 20  0  0  0  0  0  0  0  0999 V2000
   -1.8690   -0.3571   -0.1515 C   0  0  0  0  0  0  0  0  0  0  0  0
   -3.1712   -0.8597   -0.2238 N   0  0  0  0  0  0  0  0  0  0  0  0
   -4.2216   -1.2230   -0.2970 N   0  0  0  0  0  0  0  0  0  0  0  0
   -1.7284    0.9749   -0.5646 C   0  0  0  0  0  0  0  0  0  0  0  0
   -0.3756    1.3939   -0.4664 C   0  0  0  0  0  0  0  0  0  0  0  0
    0.6242    0.5442   -0.0148 C   0  0  0  0  0  0  0  0  0  0  0  0
    2.0216    1.0470    0.0609 N   0  0  0  0  0  0  0  0  0  0  0  0
    2.2273    2.2045   -0.2882 O   0  0  0  0  0  0  0  0  0  0  0  0
    2.8792    0.2662    0.4697 O   0  0  0  0  0  0  0  0  0  0  0  0
    0.4000   -0.7871    0.3845 C   0  0  0  0  0  0  0  0  0  0  0  0
   -0.8883   -1.2685    0.3183 C   0  0  0  0  0  0  0  0  0  0  0  0
   -3.1790    2.1603   -1.1455 H   0  0  0  0  0  0  0  0  0  0  0  0
   -0.0927    2.4028   -0.7475 H   0  0  0  0  0  0  0  0  0  0  0  0
    1.2270   -1.3936    0.7281 H   0  0  0  0  0  0  0  0  0  0  0  0
   -1.1352   -2.2841    0.6109 H   0  0  0  0  0  0  0  0  0  0  0  0
   -5.1706    2.6386   -0.4526 S   0  0  0  0  0  0  0  0  0  0  0  0
   -3.9372    2.7767   -1.4375 O   0  0  0  0  0  0  0  0  0  0  0  0
   -6.3126    3.2603   -1.0945 O   0  0  0  0  0  0  0  0  0  0  0  0
   -5.2243    1.2899    0.0926 O   0  0  0  0  0  0  0  0  0  0  0  0
   -4.7337    3.5749    0.8132 O   0  0  0  0  0  0  0  0  0  0  0  0
   -4.9864    4.4877    0.5947 H   0  0  0  0  0  0  0  0  0  0  0  0
  1 11  2  0  0  0  0
  2  1  1  0  0  0  0
  3  2  1  0  0  0  0
  4  5  2  0  0  0  0
  4  1  1  0  0  0  0
  5  6  1  0  0  0  0
  6  7  1  0  0  0  0
  6 10  2  0  0  0  0
  7  9  2  0  0  0  0
  8  7  2  0  0  0  0
 10 14  1  0  0  0  0
 11 10  1  0  0  0  0
 11 15  1  0  0  0  0
 13  5  1  0  0  0  0
 16 19  2  0  0  0  0
 16 20  1  0  0  0  0
 17 12  1  0  0  0  0
 17 16  1  0  0  0  0
 18 16  2  0  0  0  0
 21 20  1  0  0  0  0
M  RAD  3   2   2   3   3   4   2
M  END
