Coordinates from ORCA-job 4-NO2PhN2+~HSO4-_B3LYPG-6-31G_dp-CH-Scan-d09-49-n800
 OpenBabel11261919243D

 21 20  0  0  0  0  0  0  0  0999 V2000
   -1.6293   -0.4506   -1.0490 C   0  0  0  0  0  0  0  0  0  0  0  0
   -2.8261   -1.0460   -1.4978 N   0  0  0  0  0  0  0  0  0  0  0  0
   -3.7248   -1.5392   -1.9384 N   0  0  0  0  0  0  0  0  0  0  0  0
   -0.6478   -0.4767   -2.0378 C   0  0  0  0  0  0  0  0  0  0  0  0
    0.5474    0.1270   -1.5393 C   0  0  0  0  0  0  0  0  0  0  0  0
    0.6345    0.6282   -0.2488 C   0  0  0  0  0  0  0  0  0  0  0  0
    1.9079    1.2441    0.2079 N   0  0  0  0  0  0  0  0  0  0  0  0
    2.8664    1.2100   -0.5577 O   0  0  0  0  0  0  0  0  0  0  0  0
    1.9210    1.7571    1.3278 O   0  0  0  0  0  0  0  0  0  0  0  0
   -0.4296    0.6043    0.6814 C   0  0  0  0  0  0  0  0  0  0  0  0
   -1.6218    0.0448    0.2812 C   0  0  0  0  0  0  0  0  0  0  0  0
   -3.5135    3.2491   -0.7637 H   0  0  0  0  0  0  0  0  0  0  0  0
    1.4283    0.2081   -2.1705 H   0  0  0  0  0  0  0  0  0  0  0  0
   -0.2874    1.0192    1.6699 H   0  0  0  0  0  0  0  0  0  0  0  0
   -2.4881   -0.0031    0.9325 H   0  0  0  0  0  0  0  0  0  0  0  0
   -5.0933    2.2284    0.2594 S   0  0  0  0  0  0  0  0  0  0  0  0
   -4.3723    3.5216   -0.3958 O   0  0  0  0  0  0  0  0  0  0  0  0
   -6.4763    2.5977    0.4484 O   0  0  0  0  0  0  0  0  0  0  0  0
   -4.6582    1.0408   -0.4502 O   0  0  0  0  0  0  0  0  0  0  0  0
   -4.3653    2.1377    1.7100 O   0  0  0  0  0  0  0  0  0  0  0  0
   -4.8184    2.7465    2.3194 H   0  0  0  0  0  0  0  0  0  0  0  0
  1 11  2  0  0  0  0
  2  1  1  0  0  0  0
  3  2  1  0  0  0  0
  4  5  2  0  0  0  0
  4  1  1  0  0  0  0
  5  6  1  0  0  0  0
  6  7  1  0  0  0  0
  6 10  2  0  0  0  0
  7  9  2  0  0  0  0
  8  7  2  0  0  0  0
 10 14  1  0  0  0  0
 11 10  1  0  0  0  0
 11 15  1  0  0  0  0
 12 17  1  0  0  0  0
 13  5  1  0  0  0  0
 16 18  2  0  0  0  0
 16 20  1  0  0  0  0
 17 16  1  0  0  0  0
 19 16  2  0  0  0  0
 20 21  1  0  0  0  0
M  RAD  3   2   2   3   3   4   2
M  END
