Coordinates from ORCA-job 4-NO2PhN2+~HSO4-_B3LYPG-6-31G_dp-CH-Scan-d09-49-n800
 OpenBabel11261919243D

 21 20  0  0  0  0  0  0  0  0999 V2000
   -1.8365   -0.3607   -0.1376 C   0  0  0  0  0  0  0  0  0  0  0  0
   -3.1442   -0.8520   -0.2039 N   0  0  0  0  0  0  0  0  0  0  0  0
   -4.1983   -1.2060   -0.2727 N   0  0  0  0  0  0  0  0  0  0  0  0
   -1.6907    0.9678   -0.5585 C   0  0  0  0  0  0  0  0  0  0  0  0
   -0.3331    1.3765   -0.4653 C   0  0  0  0  0  0  0  0  0  0  0  0
    0.6616    0.5219   -0.0122 C   0  0  0  0  0  0  0  0  0  0  0  0
    2.0630    1.0143    0.0576 N   0  0  0  0  0  0  0  0  0  0  0  0
    2.2769    2.1690   -0.2963 O   0  0  0  0  0  0  0  0  0  0  0  0
    2.9163    0.2290    0.4669 O   0  0  0  0  0  0  0  0  0  0  0  0
    0.4292   -0.8065    0.3945 C   0  0  0  0  0  0  0  0  0  0  0  0
   -0.8624   -1.2788    0.3345 C   0  0  0  0  0  0  0  0  0  0  0  0
   -3.2549    2.2536   -1.1917 H   0  0  0  0  0  0  0  0  0  0  0  0
   -0.0420    2.3817   -0.7520 H   0  0  0  0  0  0  0  0  0  0  0  0
    1.2532   -1.4169    0.7386 H   0  0  0  0  0  0  0  0  0  0  0  0
   -1.1161   -2.2912    0.6327 H   0  0  0  0  0  0  0  0  0  0  0  0
   -5.2404    2.6621   -0.4688 S   0  0  0  0  0  0  0  0  0  0  0  0
   -4.0152    2.8498   -1.4664 O   0  0  0  0  0  0  0  0  0  0  0  0
   -6.3903    3.2910   -1.0873 O   0  0  0  0  0  0  0  0  0  0  0  0
   -5.2696    1.2972    0.0317 O   0  0  0  0  0  0  0  0  0  0  0  0
   -4.7990    3.5645    0.8177 O   0  0  0  0  0  0  0  0  0  0  0  0
   -5.0545    4.4829    0.6274 H   0  0  0  0  0  0  0  0  0  0  0  0
  1 11  2  0  0  0  0
  2  1  1  0  0  0  0
  3  2  1  0  0  0  0
  4  5  2  0  0  0  0
  4  1  1  0  0  0  0
  5  6  1  0  0  0  0
  6  7  1  0  0  0  0
  6 10  2  0  0  0  0
  7  9  2  0  0  0  0
  8  7  2  0  0  0  0
 10 14  1  0  0  0  0
 11 10  1  0  0  0  0
 11 15  1  0  0  0  0
 13  5  1  0  0  0  0
 16 19  2  0  0  0  0
 16 20  1  0  0  0  0
 17 12  1  0  0  0  0
 17 16  1  0  0  0  0
 18 16  2  0  0  0  0
 21 20  1  0  0  0  0
M  RAD  3   2   2   3   3   4   2
M  END
