Coordinates from ORCA-job 4-NO2PhN2+~HSO4-_B3LYPG-6-31G_dp-CH-Scan-d09-49-n800
 OpenBabel11261919243D

 21 20  0  0  0  0  0  0  0  0999 V2000
   -1.9823   -0.0312   -0.2930 C   0  0  0  0  0  0  0  0  0  0  0  0
   -3.3337   -0.3401   -0.4411 N   0  0  0  0  0  0  0  0  0  0  0  0
   -4.4059   -0.5992   -0.6008 N   0  0  0  0  0  0  0  0  0  0  0  0
   -1.5818    1.2822   -0.5780 C   0  0  0  0  0  0  0  0  0  0  0  0
   -0.2090    1.5191   -0.4375 C   0  0  0  0  0  0  0  0  0  0  0  0
    0.6391    0.4925   -0.0363 C   0  0  0  0  0  0  0  0  0  0  0  0
    2.0906    0.7787    0.1076 N   0  0  0  0  0  0  0  0  0  0  0  0
    2.4661    1.9180   -0.1426 O   0  0  0  0  0  0  0  0  0  0  0  0
    2.8099   -0.1500    0.4669 O   0  0  0  0  0  0  0  0  0  0  0  0
    0.2035   -0.8089    0.2448 C   0  0  0  0  0  0  0  0  0  0  0  0
   -1.1434   -1.0905    0.1135 C   0  0  0  0  0  0  0  0  0  0  0  0
   -2.5240    2.2150   -0.9048 H   0  0  0  0  0  0  0  0  0  0  0  0
    0.2061    2.5009   -0.6311 H   0  0  0  0  0  0  0  0  0  0  0  0
    0.9179   -1.5599    0.5547 H   0  0  0  0  0  0  0  0  0  0  0  0
   -1.5394   -2.0793    0.3172 H   0  0  0  0  0  0  0  0  0  0  0  0
   -4.7450    2.5290   -0.1899 S   0  0  0  0  0  0  0  0  0  0  0  0
   -3.6655    3.0037   -1.1368 O   0  0  0  0  0  0  0  0  0  0  0  0
   -5.7672    1.6745   -0.8341 O   0  0  0  0  0  0  0  0  0  0  0  0
   -4.1674    1.9544    1.0393 O   0  0  0  0  0  0  0  0  0  0  0  0
   -5.4969    3.9362    0.1858 O   0  0  0  0  0  0  0  0  0  0  0  0
   -6.4183    3.7038    0.3850 H   0  0  0  0  0  0  0  0  0  0  0  0
  1 11  2  0  0  0  0
  2  1  1  0  0  0  0
  3  2  1  0  0  0  0
  4  5  2  0  0  0  0
  4  1  1  0  0  0  0
  5  6  1  0  0  0  0
  6  7  1  0  0  0  0
  6 10  2  0  0  0  0
  7  9  2  0  0  0  0
  8  7  2  0  0  0  0
 10 14  1  0  0  0  0
 11 10  1  0  0  0  0
 11 15  1  0  0  0  0
 12  4  1  0  0  0  0
 13  5  1  0  0  0  0
 16 20  1  0  0  0  0
 16 19  1  0  0  0  0
 17 16  2  0  0  0  0
 18 16  2  0  0  0  0
 20 21  1  0  0  0  0
M  RAD  3   2   2   3   3  19   2
M  END
