Coordinates from ORCA-job 4-NO2PhN2+~HSO4-_B3LYPG-6-31G_dp-CH-Scan-d09-49-n800
 OpenBabel11261919243D

 21 20  0  0  0  0  0  0  0  0999 V2000
   -1.6872   -0.4993   -0.7941 C   0  0  0  0  0  0  0  0  0  0  0  0
   -2.8925   -1.0548   -1.2599 N   0  0  0  0  0  0  0  0  0  0  0  0
   -3.8307   -1.4578   -1.7104 N   0  0  0  0  0  0  0  0  0  0  0  0
   -1.1004    0.3267   -1.7520 C   0  0  0  0  0  0  0  0  0  0  0  0
    0.1168    0.8647   -1.2347 C   0  0  0  0  0  0  0  0  0  0  0  0
    0.5694    0.5666    0.0424 C   0  0  0  0  0  0  0  0  0  0  0  0
    1.8386    1.1729    0.5234 N   0  0  0  0  0  0  0  0  0  0  0  0
    2.4220    1.9488   -0.2283 O   0  0  0  0  0  0  0  0  0  0  0  0
    2.2284    0.8596    1.6485 O   0  0  0  0  0  0  0  0  0  0  0  0
   -0.1056   -0.2910    0.9397 C   0  0  0  0  0  0  0  0  0  0  0  0
   -1.2865   -0.8574    0.5189 C   0  0  0  0  0  0  0  0  0  0  0  0
   -4.6870    3.0005   -1.9805 H   0  0  0  0  0  0  0  0  0  0  0  0
    0.7243    1.5331   -1.8387 H   0  0  0  0  0  0  0  0  0  0  0  0
    0.3114   -0.4795    1.9195 H   0  0  0  0  0  0  0  0  0  0  0  0
   -1.8649   -1.5241    1.1521 H   0  0  0  0  0  0  0  0  0  0  0  0
   -4.9917    2.4662    0.0726 S   0  0  0  0  0  0  0  0  0  0  0  0
   -5.2449    3.3486   -1.2634 O   0  0  0  0  0  0  0  0  0  0  0  0
   -6.0708    2.8036    0.9728 O   0  0  0  0  0  0  0  0  0  0  0  0
   -4.6559    1.1114   -0.3165 O   0  0  0  0  0  0  0  0  0  0  0  0
   -3.6108    3.1022    0.6388 O   0  0  0  0  0  0  0  0  0  0  0  0
   -3.8290    3.9080    1.1387 H   0  0  0  0  0  0  0  0  0  0  0  0
  1 11  2  0  0  0  0
  2  1  1  0  0  0  0
  3  2  1  0  0  0  0
  4  5  2  0  0  0  0
  4  1  1  0  0  0  0
  5  6  1  0  0  0  0
  6  7  1  0  0  0  0
  6 10  2  0  0  0  0
  7  9  2  0  0  0  0
  8  7  2  0  0  0  0
 10 14  1  0  0  0  0
 11 10  1  0  0  0  0
 11 15  1  0  0  0  0
 12 17  1  0  0  0  0
 13  5  1  0  0  0  0
 16 20  1  0  0  0  0
 16 18  2  0  0  0  0
 17 16  1  0  0  0  0
 19 16  2  0  0  0  0
 20 21  1  0  0  0  0
M  RAD  3   2   2   3   3   4   2
M  END
