Coordinates from ORCA-job 4-NO2PhN2+~HSO4-_B3LYPG-6-31G_dp-CH-Scan-d09-49-n800
 OpenBabel11261919243D

 21 20  0  0  0  0  0  0  0  0999 V2000
   -1.7307   -0.3699   -0.1134 C   0  0  0  0  0  0  0  0  0  0  0  0
   -3.0556   -0.8212   -0.1739 N   0  0  0  0  0  0  0  0  0  0  0  0
   -4.1207   -1.1420   -0.2487 N   0  0  0  0  0  0  0  0  0  0  0  0
   -1.5567    0.9440   -0.5631 C   0  0  0  0  0  0  0  0  0  0  0  0
   -0.1850    1.3152   -0.4768 C   0  0  0  0  0  0  0  0  0  0  0  0
    0.7856    0.4432   -0.0056 C   0  0  0  0  0  0  0  0  0  0  0  0
    2.2005    0.8969    0.0544 N   0  0  0  0  0  0  0  0  0  0  0  0
    2.4472    2.0402   -0.3162 O   0  0  0  0  0  0  0  0  0  0  0  0
    3.0316    0.0995    0.4867 O   0  0  0  0  0  0  0  0  0  0  0  0
    0.5176   -0.8709    0.4300 C   0  0  0  0  0  0  0  0  0  0  0  0
   -0.7859   -1.3087    0.3799 C   0  0  0  0  0  0  0  0  0  0  0  0
   -3.4870    2.5591   -1.3337 H   0  0  0  0  0  0  0  0  0  0  0  0
    0.1369    2.3053   -0.7837 H   0  0  0  0  0  0  0  0  0  0  0  0
    1.3253   -1.4953    0.7869 H   0  0  0  0  0  0  0  0  0  0  0  0
   -1.0677   -2.3074    0.6992 H   0  0  0  0  0  0  0  0  0  0  0  0
   -5.4493    2.7305   -0.4913 S   0  0  0  0  0  0  0  0  0  0  0  0
   -4.2875    3.0909   -1.5388 O   0  0  0  0  0  0  0  0  0  0  0  0
   -6.6681    3.2920   -1.0341 O   0  0  0  0  0  0  0  0  0  0  0  0
   -5.3275    1.3448   -0.0786 O   0  0  0  0  0  0  0  0  0  0  0  0
   -5.0197    3.5985    0.8179 O   0  0  0  0  0  0  0  0  0  0  0  0
   -5.3499    4.5044    0.6916 H   0  0  0  0  0  0  0  0  0  0  0  0
  1 11  2  0  0  0  0
  2  1  1  0  0  0  0
  3  2  1  0  0  0  0
  4  5  2  0  0  0  0
  4  1  1  0  0  0  0
  5  6  1  0  0  0  0
  6  7  1  0  0  0  0
  6 10  2  0  0  0  0
  7  9  2  0  0  0  0
  8  7  2  0  0  0  0
 10 14  1  0  0  0  0
 11 10  1  0  0  0  0
 11 15  1  0  0  0  0
 13  5  1  0  0  0  0
 16 19  2  0  0  0  0
 16 20  1  0  0  0  0
 17 12  1  0  0  0  0
 17 16  1  0  0  0  0
 18 16  2  0  0  0  0
 21 20  1  0  0  0  0
M  RAD  3   2   2   3   3   4   2
M  END
