Coordinates from ORCA-job 4-NO2PhN2+~HSO4-_B3LYPG-6-31G_dp-CH-Scan-d09-49-n800
 OpenBabel11261919243D

 21 20  0  0  0  0  0  0  0  0999 V2000
   -1.9232   -0.3332   -0.1742 C   0  0  0  0  0  0  0  0  0  0  0  0
   -3.2227   -0.8359   -0.2548 N   0  0  0  0  0  0  0  0  0  0  0  0
   -4.2711   -1.2018   -0.3301 N   0  0  0  0  0  0  0  0  0  0  0  0
   -1.7684    1.0089   -0.5490 C   0  0  0  0  0  0  0  0  0  0  0  0
   -0.4216    1.4294   -0.4489 C   0  0  0  0  0  0  0  0  0  0  0  0
    0.5790    0.5655   -0.0254 C   0  0  0  0  0  0  0  0  0  0  0  0
    1.9771    1.0650    0.0566 N   0  0  0  0  0  0  0  0  0  0  0  0
    2.1803    2.2307   -0.2641 O   0  0  0  0  0  0  0  0  0  0  0  0
    2.8344    0.2723    0.4412 O   0  0  0  0  0  0  0  0  0  0  0  0
    0.3527   -0.7738    0.3374 C   0  0  0  0  0  0  0  0  0  0  0  0
   -0.9376   -1.2522    0.2639 C   0  0  0  0  0  0  0  0  0  0  0  0
   -2.9717    2.0007   -0.9918 H   0  0  0  0  0  0  0  0  0  0  0  0
   -0.1461    2.4468   -0.7042 H   0  0  0  0  0  0  0  0  0  0  0  0
    1.1794   -1.3919    0.6609 H   0  0  0  0  0  0  0  0  0  0  0  0
   -1.1836   -2.2749    0.5305 H   0  0  0  0  0  0  0  0  0  0  0  0
   -5.0329    2.5930   -0.4054 S   0  0  0  0  0  0  0  0  0  0  0  0
   -3.7661    2.6910   -1.3127 O   0  0  0  0  0  0  0  0  0  0  0  0
   -6.1994    3.0391   -1.1506 O   0  0  0  0  0  0  0  0  0  0  0  0
   -5.0369    1.3160    0.3070 O   0  0  0  0  0  0  0  0  0  0  0  0
   -4.7517    3.7073    0.7632 O   0  0  0  0  0  0  0  0  0  0  0  0
   -5.1167    4.5469    0.4392 H   0  0  0  0  0  0  0  0  0  0  0  0
  1 11  2  0  0  0  0
  2  1  1  0  0  0  0
  3  2  1  0  0  0  0
  4  5  2  0  0  0  0
  4  1  1  0  0  0  0
  5  6  1  0  0  0  0
  6  7  1  0  0  0  0
  6 10  2  0  0  0  0
  7  9  2  0  0  0  0
  8  7  2  0  0  0  0
 10 14  1  0  0  0  0
 11 10  1  0  0  0  0
 11 15  1  0  0  0  0
 13  5  1  0  0  0  0
 16 19  2  0  0  0  0
 16 20  1  0  0  0  0
 17 12  1  0  0  0  0
 17 16  1  0  0  0  0
 18 16  2  0  0  0  0
 21 20  1  0  0  0  0
M  RAD  3   2   2   3   3   4   2
M  END
