Coordinates from ORCA-job 4-NO2PhN2+~HSO4-_B3LYPG-6-31G_dp-CH-Scan-d09-49-n800
 OpenBabel11261919243D

 21 20  0  0  0  0  0  0  0  0999 V2000
   -1.8487   -0.3589   -0.1420 C   0  0  0  0  0  0  0  0  0  0  0  0
   -3.1543   -0.8546   -0.2109 N   0  0  0  0  0  0  0  0  0  0  0  0
   -4.2070   -1.2120   -0.2817 N   0  0  0  0  0  0  0  0  0  0  0  0
   -1.7050    0.9711   -0.5596 C   0  0  0  0  0  0  0  0  0  0  0  0
   -0.3492    1.3837   -0.4641 C   0  0  0  0  0  0  0  0  0  0  0  0
    0.6474    0.5309   -0.0115 C   0  0  0  0  0  0  0  0  0  0  0  0
    2.0472    1.0274    0.0610 N   0  0  0  0  0  0  0  0  0  0  0  0
    2.2592    2.1808   -0.2981 O   0  0  0  0  0  0  0  0  0  0  0  0
    2.9034    0.2412    0.4627 O   0  0  0  0  0  0  0  0  0  0  0  0
    0.4182   -0.7988    0.3919 C   0  0  0  0  0  0  0  0  0  0  0  0
   -0.8721   -1.2746    0.3292 C   0  0  0  0  0  0  0  0  0  0  0  0
   -3.2263    2.2194   -1.1737 H   0  0  0  0  0  0  0  0  0  0  0  0
   -0.0611    2.3904   -0.7482 H   0  0  0  0  0  0  0  0  0  0  0  0
    1.2433   -1.4078    0.7357 H   0  0  0  0  0  0  0  0  0  0  0  0
   -1.1232   -2.2883    0.6249 H   0  0  0  0  0  0  0  0  0  0  0  0
   -5.2147    2.6531   -0.4640 S   0  0  0  0  0  0  0  0  0  0  0  0
   -3.9849    2.8227   -1.4555 O   0  0  0  0  0  0  0  0  0  0  0  0
   -6.3601    3.2815   -1.0920 O   0  0  0  0  0  0  0  0  0  0  0  0
   -5.2549    1.2933    0.0510 O   0  0  0  0  0  0  0  0  0  0  0  0
   -4.7757    3.5657    0.8168 O   0  0  0  0  0  0  0  0  0  0  0  0
   -5.0283    4.4829    0.6168 H   0  0  0  0  0  0  0  0  0  0  0  0
  1 11  2  0  0  0  0
  2  1  1  0  0  0  0
  3  2  1  0  0  0  0
  4  5  2  0  0  0  0
  4  1  1  0  0  0  0
  5  6  1  0  0  0  0
  6  7  1  0  0  0  0
  6 10  2  0  0  0  0
  7  9  2  0  0  0  0
  8  7  2  0  0  0  0
 10 14  1  0  0  0  0
 11 10  1  0  0  0  0
 11 15  1  0  0  0  0
 13  5  1  0  0  0  0
 16 19  2  0  0  0  0
 16 20  1  0  0  0  0
 17 12  1  0  0  0  0
 17 16  1  0  0  0  0
 18 16  2  0  0  0  0
 21 20  1  0  0  0  0
M  RAD  3   2   2   3   3   4   2
M  END
