Coordinates from ORCA-job 4-NO2PhN2+~HSO4-_B3LYPG-6-31G_dp-CH-Scan-d09-49-n800
 OpenBabel11261919243D

 21 20  0  0  0  0  0  0  0  0999 V2000
   -1.5898   -0.3861   -0.0991 C   0  0  0  0  0  0  0  0  0  0  0  0
   -2.9366   -0.7805   -0.1619 N   0  0  0  0  0  0  0  0  0  0  0  0
   -4.0177   -1.0450   -0.2401 N   0  0  0  0  0  0  0  0  0  0  0  0
   -1.3736    0.9015   -0.5974 C   0  0  0  0  0  0  0  0  0  0  0  0
    0.0132    1.2243   -0.5068 C   0  0  0  0  0  0  0  0  0  0  0  0
    0.9459    0.3378    0.0109 C   0  0  0  0  0  0  0  0  0  0  0  0
    2.3753    0.7428    0.0749 N   0  0  0  0  0  0  0  0  0  0  0  0
    2.6693    1.8623   -0.3332 O   0  0  0  0  0  0  0  0  0  0  0  0
    3.1752   -0.0718    0.5344 O   0  0  0  0  0  0  0  0  0  0  0  0
    0.6268   -0.9504    0.4923 C   0  0  0  0  0  0  0  0  0  0  0  0
   -0.6904   -1.3436    0.4420 C   0  0  0  0  0  0  0  0  0  0  0  0
   -3.8445    3.0025   -1.5595 H   0  0  0  0  0  0  0  0  0  0  0  0
    0.3766    2.1894   -0.8471 H   0  0  0  0  0  0  0  0  0  0  0  0
    1.4084   -1.5883    0.8819 H   0  0  0  0  0  0  0  0  0  0  0  0
   -1.0126   -2.3193    0.7935 H   0  0  0  0  0  0  0  0  0  0  0  0
   -5.7044    2.8167   -0.5144 S   0  0  0  0  0  0  0  0  0  0  0  0
   -4.7187    3.4247   -1.6418 O   0  0  0  0  0  0  0  0  0  0  0  0
   -7.0368    3.2295   -0.8970 O   0  0  0  0  0  0  0  0  0  0  0  0
   -5.3343    1.4433   -0.2407 O   0  0  0  0  0  0  0  0  0  0  0  0
   -5.2598    3.6508    0.8088 O   0  0  0  0  0  0  0  0  0  0  0  0
   -5.7183    4.5083    0.7891 H   0  0  0  0  0  0  0  0  0  0  0  0
  1 11  2  0  0  0  0
  2  1  1  0  0  0  0
  3  2  1  0  0  0  0
  4  5  2  0  0  0  0
  4  1  1  0  0  0  0
  5  6  1  0  0  0  0
  6  7  1  0  0  0  0
  6 10  2  0  0  0  0
  7  9  2  0  0  0  0
  8  7  2  0  0  0  0
 10 14  1  0  0  0  0
 11 10  1  0  0  0  0
 11 15  1  0  0  0  0
 13  5  1  0  0  0  0
 16 19  2  0  0  0  0
 16 20  1  0  0  0  0
 17 12  1  0  0  0  0
 17 16  1  0  0  0  0
 18 16  2  0  0  0  0
 21 20  1  0  0  0  0
M  RAD  3   2   2   3   3   4   2
M  END
