Coordinates from ORCA-job 4-NO2PhN2+~HSO4-_B3LYPG-6-31G_dp-CH-Scan-d09-49-n800
 OpenBabel11261919243D

 21 20  0  0  0  0  0  0  0  0999 V2000
   -1.9238   -0.3324   -0.1744 C   0  0  0  0  0  0  0  0  0  0  0  0
   -3.2235   -0.8345   -0.2549 N   0  0  0  0  0  0  0  0  0  0  0  0
   -4.2721   -1.1999   -0.3299 N   0  0  0  0  0  0  0  0  0  0  0  0
   -1.7681    1.0098   -0.5484 C   0  0  0  0  0  0  0  0  0  0  0  0
   -0.4213    1.4299   -0.4484 C   0  0  0  0  0  0  0  0  0  0  0  0
    0.5791    0.5652   -0.0258 C   0  0  0  0  0  0  0  0  0  0  0  0
    1.9775    1.0641    0.0560 N   0  0  0  0  0  0  0  0  0  0  0  0
    2.1808    2.2302   -0.2630 O   0  0  0  0  0  0  0  0  0  0  0  0
    2.8344    0.2712    0.4407 O   0  0  0  0  0  0  0  0  0  0  0  0
    0.3522   -0.7742    0.3361 C   0  0  0  0  0  0  0  0  0  0  0  0
   -0.9383   -1.2520    0.2627 C   0  0  0  0  0  0  0  0  0  0  0  0
   -2.9676    1.9990   -0.9887 H   0  0  0  0  0  0  0  0  0  0  0  0
   -0.1457    2.4474   -0.7032 H   0  0  0  0  0  0  0  0  0  0  0  0
    1.1788   -1.3928    0.6589 H   0  0  0  0  0  0  0  0  0  0  0  0
   -1.1846   -2.2747    0.5287 H   0  0  0  0  0  0  0  0  0  0  0  0
   -5.0310    2.5924   -0.4045 S   0  0  0  0  0  0  0  0  0  0  0  0
   -3.7636    2.6913   -1.3097 O   0  0  0  0  0  0  0  0  0  0  0  0
   -6.1985    3.0327   -1.1518 O   0  0  0  0  0  0  0  0  0  0  0  0
   -5.0324    1.3173    0.3118 O   0  0  0  0  0  0  0  0  0  0  0  0
   -4.7551    3.7110    0.7616 O   0  0  0  0  0  0  0  0  0  0  0  0
   -5.1238    4.5480    0.4352 H   0  0  0  0  0  0  0  0  0  0  0  0
  1 11  2  0  0  0  0
  2  1  1  0  0  0  0
  3  2  1  0  0  0  0
  4  5  2  0  0  0  0
  4  1  1  0  0  0  0
  5  6  1  0  0  0  0
  6  7  1  0  0  0  0
  6 10  2  0  0  0  0
  7  9  2  0  0  0  0
  8  7  2  0  0  0  0
 10 14  1  0  0  0  0
 11 10  1  0  0  0  0
 11 15  1  0  0  0  0
 13  5  1  0  0  0  0
 16 19  2  0  0  0  0
 16 20  1  0  0  0  0
 17 12  1  0  0  0  0
 17 16  1  0  0  0  0
 18 16  2  0  0  0  0
 21 20  1  0  0  0  0
M  RAD  3   2   2   3   3   4   2
M  END
