Coordinates from ORCA-job 4-NO2PhN2+~HSO4-_B3LYPG-6-31G_dp-CH-Scan-d09-49-n800
 OpenBabel11261919243D

 21 20  0  0  0  0  0  0  0  0999 V2000
   -1.5654   -0.3934   -0.1183 C   0  0  0  0  0  0  0  0  0  0  0  0
   -2.9145   -0.7805   -0.1953 N   0  0  0  0  0  0  0  0  0  0  0  0
   -3.9961   -1.0363   -0.2937 N   0  0  0  0  0  0  0  0  0  0  0  0
   -1.3371    0.8822   -0.6398 C   0  0  0  0  0  0  0  0  0  0  0  0
    0.0501    1.2008   -0.5330 C   0  0  0  0  0  0  0  0  0  0  0  0
    0.9700    0.3216    0.0188 C   0  0  0  0  0  0  0  0  0  0  0  0
    2.3999    0.7219    0.0989 N   0  0  0  0  0  0  0  0  0  0  0  0
    2.7055    1.8329   -0.3238 O   0  0  0  0  0  0  0  0  0  0  0  0
    3.1892   -0.0878    0.5850 O   0  0  0  0  0  0  0  0  0  0  0  0
    0.6374   -0.9554    0.5212 C   0  0  0  0  0  0  0  0  0  0  0  0
   -0.6805   -1.3442    0.4571 C   0  0  0  0  0  0  0  0  0  0  0  0
   -3.9521    3.0913   -1.6472 H   0  0  0  0  0  0  0  0  0  0  0  0
    0.4237    2.1570   -0.8873 H   0  0  0  0  0  0  0  0  0  0  0  0
    1.4098   -1.5882    0.9366 H   0  0  0  0  0  0  0  0  0  0  0  0
   -1.0129   -2.3113    0.8228 H   0  0  0  0  0  0  0  0  0  0  0  0
   -5.7413    2.8274   -0.4993 S   0  0  0  0  0  0  0  0  0  0  0  0
   -4.8444    3.4797   -1.6772 O   0  0  0  0  0  0  0  0  0  0  0  0
   -7.1058    3.2032   -0.7971 O   0  0  0  0  0  0  0  0  0  0  0  0
   -5.3127    1.4637   -0.2675 O   0  0  0  0  0  0  0  0  0  0  0  0
   -5.2425    3.6607    0.8044 O   0  0  0  0  0  0  0  0  0  0  0  0
   -5.7271    4.5037    0.8236 H   0  0  0  0  0  0  0  0  0  0  0  0
  1 11  2  0  0  0  0
  2  1  1  0  0  0  0
  3  2  1  0  0  0  0
  4  5  2  0  0  0  0
  4  1  1  0  0  0  0
  5  6  1  0  0  0  0
  6  7  1  0  0  0  0
  6 10  2  0  0  0  0
  7  9  2  0  0  0  0
  8  7  2  0  0  0  0
 10 14  1  0  0  0  0
 11 10  1  0  0  0  0
 11 15  1  0  0  0  0
 13  5  1  0  0  0  0
 16 19  2  0  0  0  0
 16 20  1  0  0  0  0
 17 12  1  0  0  0  0
 17 16  1  0  0  0  0
 18 16  2  0  0  0  0
 20 21  1  0  0  0  0
M  RAD  3   2   2   3   3   4   2
M  END
