Coordinates from ORCA-job 4-NO2PhN2+~HSO4-_B3LYPG-6-31G_dp-CH-Scan-d09-49-n800
 OpenBabel11261919243D

 21 20  0  0  0  0  0  0  0  0999 V2000
   -1.5834   -0.3872   -0.1009 C   0  0  0  0  0  0  0  0  0  0  0  0
   -2.9311   -0.7792   -0.1655 N   0  0  0  0  0  0  0  0  0  0  0  0
   -4.0125   -1.0415   -0.2465 N   0  0  0  0  0  0  0  0  0  0  0  0
   -1.3647    0.8984   -0.6027 C   0  0  0  0  0  0  0  0  0  0  0  0
    0.0225    1.2194   -0.5102 C   0  0  0  0  0  0  0  0  0  0  0  0
    0.9529    0.3333    0.0122 C   0  0  0  0  0  0  0  0  0  0  0  0
    2.3826    0.7364    0.0781 N   0  0  0  0  0  0  0  0  0  0  0  0
    2.6792    1.8545   -0.3320 O   0  0  0  0  0  0  0  0  0  0  0  0
    3.1805   -0.0782    0.5413 O   0  0  0  0  0  0  0  0  0  0  0  0
    0.6309   -0.9530    0.4969 C   0  0  0  0  0  0  0  0  0  0  0  0
   -0.6868   -1.3445    0.4450 C   0  0  0  0  0  0  0  0  0  0  0  0
   -3.8665    3.0229   -1.5750 H   0  0  0  0  0  0  0  0  0  0  0  0
    0.3880    2.1830   -0.8528 H   0  0  0  0  0  0  0  0  0  0  0  0
    1.4107   -1.5908    0.8901 H   0  0  0  0  0  0  0  0  0  0  0  0
   -1.0112   -2.3187    0.7987 H   0  0  0  0  0  0  0  0  0  0  0  0
   -5.7151    2.8202   -0.5130 S   0  0  0  0  0  0  0  0  0  0  0  0
   -4.7445    3.4383   -1.6484 O   0  0  0  0  0  0  0  0  0  0  0  0
   -7.0538    3.2243   -0.8823 O   0  0  0  0  0  0  0  0  0  0  0  0
   -5.3322    1.4488   -0.2464 O   0  0  0  0  0  0  0  0  0  0  0  0
   -5.2639    3.6544    0.8078 O   0  0  0  0  0  0  0  0  0  0  0  0
   -5.7285    4.5086    0.7945 H   0  0  0  0  0  0  0  0  0  0  0  0
  1 11  2  0  0  0  0
  2  1  1  0  0  0  0
  3  2  1  0  0  0  0
  4  5  2  0  0  0  0
  4  1  1  0  0  0  0
  5  6  1  0  0  0  0
  6  7  1  0  0  0  0
  6 10  2  0  0  0  0
  7  9  2  0  0  0  0
  8  7  2  0  0  0  0
 10 14  1  0  0  0  0
 11 10  1  0  0  0  0
 11 15  1  0  0  0  0
 13  5  1  0  0  0  0
 16 19  2  0  0  0  0
 16 20  1  0  0  0  0
 17 12  1  0  0  0  0
 17 16  1  0  0  0  0
 18 16  2  0  0  0  0
 21 20  1  0  0  0  0
M  RAD  3   2   2   3   3   4   2
M  END
