Coordinates from ORCA-job 4-NO2PhN2+~HSO4-_B3LYPG-6-31G_dp-CH-Scan-d09-49-n800
 OpenBabel11261919243D

 21 20  0  0  0  0  0  0  0  0999 V2000
   -1.7157   -0.3711   -0.1101 C   0  0  0  0  0  0  0  0  0  0  0  0
   -3.0429   -0.8166   -0.1709 N   0  0  0  0  0  0  0  0  0  0  0  0
   -4.1100   -1.1321   -0.2406 N   0  0  0  0  0  0  0  0  0  0  0  0
   -1.5375    0.9405   -0.5645 C   0  0  0  0  0  0  0  0  0  0  0  0
   -0.1639    1.3063   -0.4783 C   0  0  0  0  0  0  0  0  0  0  0  0
    0.8030    0.4322   -0.0033 C   0  0  0  0  0  0  0  0  0  0  0  0
    2.2196    0.8806    0.0565 N   0  0  0  0  0  0  0  0  0  0  0  0
    2.4723    2.0192   -0.3244 O   0  0  0  0  0  0  0  0  0  0  0  0
    3.0485    0.0790    0.4854 O   0  0  0  0  0  0  0  0  0  0  0  0
    0.5297   -0.8795    0.4369 C   0  0  0  0  0  0  0  0  0  0  0  0
   -0.7754   -1.3124    0.3874 C   0  0  0  0  0  0  0  0  0  0  0  0
   -3.5190    2.6079   -1.3537 H   0  0  0  0  0  0  0  0  0  0  0  0
    0.1625    2.2939   -0.7885 H   0  0  0  0  0  0  0  0  0  0  0  0
    1.3347   -1.5057    0.7966 H   0  0  0  0  0  0  0  0  0  0  0  0
   -1.0615   -2.3089    0.7098 H   0  0  0  0  0  0  0  0  0  0  0  0
   -5.4777    2.7401   -0.4966 S   0  0  0  0  0  0  0  0  0  0  0  0
   -4.3265    3.1305   -1.5476 O   0  0  0  0  0  0  0  0  0  0  0  0
   -6.7070    3.2899   -1.0273 O   0  0  0  0  0  0  0  0  0  0  0  0
   -5.3316    1.3521   -0.1013 O   0  0  0  0  0  0  0  0  0  0  0  0
   -5.0526    3.6001    0.8189 O   0  0  0  0  0  0  0  0  0  0  0  0
   -5.3957    4.5028    0.7045 H   0  0  0  0  0  0  0  0  0  0  0  0
  1 11  2  0  0  0  0
  2  1  1  0  0  0  0
  3  2  1  0  0  0  0
  4  5  2  0  0  0  0
  4  1  1  0  0  0  0
  5  6  1  0  0  0  0
  6  7  1  0  0  0  0
  6 10  2  0  0  0  0
  7  9  2  0  0  0  0
  8  7  2  0  0  0  0
 10 14  1  0  0  0  0
 11 10  1  0  0  0  0
 11 15  1  0  0  0  0
 13  5  1  0  0  0  0
 16 19  2  0  0  0  0
 16 20  1  0  0  0  0
 17 12  1  0  0  0  0
 17 16  1  0  0  0  0
 18 16  2  0  0  0  0
 21 20  1  0  0  0  0
M  RAD  3   2   2   3   3   4   2
M  END
