Coordinates from ORCA-job 4-NO2PhN2+~HSO4-_B3LYPG-6-31G_dp-CH-Scan-d09-49-n800
 OpenBabel11261919243D

 21 20  0  0  0  0  0  0  0  0999 V2000
   -1.6264   -0.5036   -1.0540 C   0  0  0  0  0  0  0  0  0  0  0  0
   -2.8290   -1.1091   -1.4728 N   0  0  0  0  0  0  0  0  0  0  0  0
   -3.7340   -1.6137   -1.8859 N   0  0  0  0  0  0  0  0  0  0  0  0
   -0.6178   -0.6550   -2.0028 C   0  0  0  0  0  0  0  0  0  0  0  0
    0.5691   -0.0001   -1.5455 C   0  0  0  0  0  0  0  0  0  0  0  0
    0.6154    0.6824   -0.3401 C   0  0  0  0  0  0  0  0  0  0  0  0
    1.8700    1.3718    0.0610 N   0  0  0  0  0  0  0  0  0  0  0  0
    2.8345    1.2872   -0.6924 O   0  0  0  0  0  0  0  0  0  0  0  0
    1.8617    1.9879    1.1275 O   0  0  0  0  0  0  0  0  0  0  0  0
   -0.4698    0.7622    0.5641 C   0  0  0  0  0  0  0  0  0  0  0  0
   -1.6470    0.1405    0.2123 C   0  0  0  0  0  0  0  0  0  0  0  0
   -2.9861    2.8787   -0.0166 H   0  0  0  0  0  0  0  0  0  0  0  0
    1.4734   -0.0189   -2.1476 H   0  0  0  0  0  0  0  0  0  0  0  0
   -0.3443    1.2821    1.5047 H   0  0  0  0  0  0  0  0  0  0  0  0
   -2.5174    0.1307    0.8605 H   0  0  0  0  0  0  0  0  0  0  0  0
   -5.0298    2.2810    0.2413 S   0  0  0  0  0  0  0  0  0  0  0  0
   -3.8319    3.3555    0.0631 O   0  0  0  0  0  0  0  0  0  0  0  0
   -6.2540    3.0093    0.0055 O   0  0  0  0  0  0  0  0  0  0  0  0
   -4.6695    1.0541   -0.4433 O   0  0  0  0  0  0  0  0  0  0  0  0
   -4.9190    1.9213    1.8228 O   0  0  0  0  0  0  0  0  0  0  0  0
   -5.3948    2.6045    2.3268 H   0  0  0  0  0  0  0  0  0  0  0  0
  1 11  2  0  0  0  0
  2  1  1  0  0  0  0
  3  2  1  0  0  0  0
  4  5  2  0  0  0  0
  4  1  1  0  0  0  0
  5  6  1  0  0  0  0
  6  7  1  0  0  0  0
  6 10  2  0  0  0  0
  7  9  2  0  0  0  0
  8  7  2  0  0  0  0
 10 14  1  0  0  0  0
 11 10  1  0  0  0  0
 11 15  1  0  0  0  0
 12 17  1  0  0  0  0
 13  5  1  0  0  0  0
 16 20  1  0  0  0  0
 17 16  1  0  0  0  0
 18 16  2  0  0  0  0
 19 16  2  0  0  0  0
 20 21  1  0  0  0  0
M  RAD  3   2   2   3   3   4   2
M  END
