Coordinates from ORCA-job 4-NO2PhN2+~HSO4-_B3LYPG-6-31G_dp-CH-Scan-d09-49-n800
 OpenBabel11261919243D

 21 20  0  0  0  0  0  0  0  0999 V2000
   -2.0131    0.0520   -0.3417 C   0  0  0  0  0  0  0  0  0  0  0  0
   -3.3646   -0.2192   -0.5330 N   0  0  0  0  0  0  0  0  0  0  0  0
   -4.4345   -0.4678   -0.7522 N   0  0  0  0  0  0  0  0  0  0  0  0
   -1.5178    1.3219   -0.6743 C   0  0  0  0  0  0  0  0  0  0  0  0
   -0.1511    1.5271   -0.5099 C   0  0  0  0  0  0  0  0  0  0  0  0
    0.6390    0.4924   -0.0148 C   0  0  0  0  0  0  0  0  0  0  0  0
    2.0925    0.7314    0.1644 N   0  0  0  0  0  0  0  0  0  0  0  0
    2.5210    1.8369   -0.1464 O   0  0  0  0  0  0  0  0  0  0  0  0
    2.7597   -0.1975    0.6112 O   0  0  0  0  0  0  0  0  0  0  0  0
    0.1342   -0.7645    0.3228 C   0  0  0  0  0  0  0  0  0  0  0  0
   -1.2213   -0.9998    0.1503 C   0  0  0  0  0  0  0  0  0  0  0  0
   -2.2424    2.1574   -1.0572 H   0  0  0  0  0  0  0  0  0  0  0  0
    0.3018    2.4810   -0.7486 H   0  0  0  0  0  0  0  0  0  0  0  0
    0.8009   -1.5266    0.7040 H   0  0  0  0  0  0  0  0  0  0  0  0
   -1.6626   -1.9599    0.3920 H   0  0  0  0  0  0  0  0  0  0  0  0
   -4.7343    2.5363   -0.2750 S   0  0  0  0  0  0  0  0  0  0  0  0
   -3.9194    3.1581   -1.3379 O   0  0  0  0  0  0  0  0  0  0  0  0
   -5.7160    1.5102   -0.7527 O   0  0  0  0  0  0  0  0  0  0  0  0
   -3.9286    2.0135    0.8587 O   0  0  0  0  0  0  0  0  0  0  0  0
   -5.6458    3.7792    0.2904 O   0  0  0  0  0  0  0  0  0  0  0  0
   -6.3442    3.3867    0.8387 H   0  0  0  0  0  0  0  0  0  0  0  0
  1 11  2  0  0  0  0
  2  1  1  0  0  0  0
  3  2  1  0  0  0  0
  4  5  2  0  0  0  0
  4  1  1  0  0  0  0
  5  6  1  0  0  0  0
  6  7  1  0  0  0  0
  6 10  2  0  0  0  0
  7  9  2  0  0  0  0
  8  7  2  0  0  0  0
 10 14  1  0  0  0  0
 11 10  1  0  0  0  0
 11 15  1  0  0  0  0
 12  4  1  0  0  0  0
 13  5  1  0  0  0  0
 16 20  1  0  0  0  0
 16 19  1  0  0  0  0
 17 16  2  0  0  0  0
 18 16  2  0  0  0  0
 20 21  1  0  0  0  0
M  RAD  3   2   2   3   3  19   2
M  END
