Coordinates from ORCA-job 4-NO2PhN2+~HSO4-_B3LYPG-6-31G_dp-CH-Scan-d09-49-n800
 OpenBabel11261919243D

 21 20  0  0  0  0  0  0  0  0999 V2000
   -1.6377   -0.5115   -1.0488 C   0  0  0  0  0  0  0  0  0  0  0  0
   -2.8379   -1.1225   -1.4661 N   0  0  0  0  0  0  0  0  0  0  0  0
   -3.7408   -1.6321   -1.8777 N   0  0  0  0  0  0  0  0  0  0  0  0
   -0.6296   -0.6561   -1.9991 C   0  0  0  0  0  0  0  0  0  0  0  0
    0.5532    0.0086   -1.5449 C   0  0  0  0  0  0  0  0  0  0  0  0
    0.5949    0.6979   -0.3433 C   0  0  0  0  0  0  0  0  0  0  0  0
    1.8432    1.4016    0.0521 N   0  0  0  0  0  0  0  0  0  0  0  0
    2.8033    1.3328   -0.7083 O   0  0  0  0  0  0  0  0  0  0  0  0
    1.8346    2.0119    1.1221 O   0  0  0  0  0  0  0  0  0  0  0  0
   -0.4885    0.7685    0.5641 C   0  0  0  0  0  0  0  0  0  0  0  0
   -1.6602    0.1333    0.2173 C   0  0  0  0  0  0  0  0  0  0  0  0
   -2.9212    2.8027    0.0323 H   0  0  0  0  0  0  0  0  0  0  0  0
    1.4575   -0.0070   -2.1471 H   0  0  0  0  0  0  0  0  0  0  0  0
   -0.3644    1.2894    1.5044 H   0  0  0  0  0  0  0  0  0  0  0  0
   -2.5270    0.1118    0.8704 H   0  0  0  0  0  0  0  0  0  0  0  0
   -4.9937    2.2853    0.2308 S   0  0  0  0  0  0  0  0  0  0  0  0
   -3.7498    3.3118    0.0948 O   0  0  0  0  0  0  0  0  0  0  0  0
   -6.1814    3.0652   -0.0259 O   0  0  0  0  0  0  0  0  0  0  0  0
   -4.6672    1.0518   -0.4589 O   0  0  0  0  0  0  0  0  0  0  0  0
   -4.9367    1.9045    1.8105 O   0  0  0  0  0  0  0  0  0  0  0  0
   -5.3974    2.6009    2.3102 H   0  0  0  0  0  0  0  0  0  0  0  0
  1 11  2  0  0  0  0
  2  1  1  0  0  0  0
  3  2  1  0  0  0  0
  4  5  2  0  0  0  0
  4  1  1  0  0  0  0
  5  6  1  0  0  0  0
  6  7  1  0  0  0  0
  6 10  2  0  0  0  0
  7  9  2  0  0  0  0
  8  7  2  0  0  0  0
 10 14  1  0  0  0  0
 11 10  1  0  0  0  0
 11 15  1  0  0  0  0
 12 17  1  0  0  0  0
 13  5  1  0  0  0  0
 16 20  1  0  0  0  0
 17 16  1  0  0  0  0
 18 16  2  0  0  0  0
 19 16  2  0  0  0  0
 20 21  1  0  0  0  0
M  RAD  3   2   2   3   3   4   2
M  END
