Coordinates from ORCA-job 4-NO2PhN2+~HSO4-_B3LYPG-6-31G_dp-CH-Scan-d09-49-n800
 OpenBabel11261919243D

 21 20  0  0  0  0  0  0  0  0999 V2000
   -1.6347   -0.3800   -0.0975 C   0  0  0  0  0  0  0  0  0  0  0  0
   -2.9749   -0.7929   -0.1564 N   0  0  0  0  0  0  0  0  0  0  0  0
   -4.0509   -1.0774   -0.2299 N   0  0  0  0  0  0  0  0  0  0  0  0
   -1.4330    0.9167   -0.5797 C   0  0  0  0  0  0  0  0  0  0  0  0
   -0.0502    1.2540   -0.4946 C   0  0  0  0  0  0  0  0  0  0  0  0
    0.8959    0.3707    0.0041 C   0  0  0  0  0  0  0  0  0  0  0  0
    2.3214    0.7902    0.0620 N   0  0  0  0  0  0  0  0  0  0  0  0
    2.6004    1.9163   -0.3380 O   0  0  0  0  0  0  0  0  0  0  0  0
    3.1324   -0.0201    0.5089 O   0  0  0  0  0  0  0  0  0  0  0  0
    0.5938   -0.9263    0.4711 C   0  0  0  0  0  0  0  0  0  0  0  0
   -0.7196   -1.3329    0.4249 C   0  0  0  0  0  0  0  0  0  0  0  0
   -3.7151    2.8667   -1.4765 H   0  0  0  0  0  0  0  0  0  0  0  0
    0.2997    2.2275   -0.8244 H   0  0  0  0  0  0  0  0  0  0  0  0
    1.3846   -1.5609    0.8473 H   0  0  0  0  0  0  0  0  0  0  0  0
   -1.0284   -2.3163    0.7665 H   0  0  0  0  0  0  0  0  0  0  0  0
   -5.6260    2.7908   -0.5137 S   0  0  0  0  0  0  0  0  0  0  0  0
   -4.5648    3.3293   -1.6036 O   0  0  0  0  0  0  0  0  0  0  0  0
   -6.9198    3.2589   -0.9607 O   0  0  0  0  0  0  0  0  0  0  0  0
   -5.3387    1.4056   -0.1992 O   0  0  0  0  0  0  0  0  0  0  0  0
   -5.2015    3.6258    0.8162 O   0  0  0  0  0  0  0  0  0  0  0  0
   -5.6174    4.5032    0.7619 H   0  0  0  0  0  0  0  0  0  0  0  0
  1 11  2  0  0  0  0
  2  1  1  0  0  0  0
  3  2  1  0  0  0  0
  4  5  2  0  0  0  0
  4  1  1  0  0  0  0
  5  6  1  0  0  0  0
  6  7  1  0  0  0  0
  6 10  2  0  0  0  0
  7  9  2  0  0  0  0
  8  7  2  0  0  0  0
 10 14  1  0  0  0  0
 11 10  1  0  0  0  0
 11 15  1  0  0  0  0
 13  5  1  0  0  0  0
 16 19  2  0  0  0  0
 16 20  1  0  0  0  0
 17 12  1  0  0  0  0
 17 16  1  0  0  0  0
 18 16  2  0  0  0  0
 21 20  1  0  0  0  0
M  RAD  3   2   2   3   3   4   2
M  END
