Coordinates from ORCA-job 4-NO2PhN2+~HSO4-_B3LYPG-6-31G_dp-CH-Scan-d09-49-n800
 OpenBabel11261919243D

 21 20  0  0  0  0  0  0  0  0999 V2000
   -1.6040   -0.4268   -0.2426 C   0  0  0  0  0  0  0  0  0  0  0  0
   -2.9341   -0.8548   -0.3995 N   0  0  0  0  0  0  0  0  0  0  0  0
   -3.9993   -1.1427   -0.5652 N   0  0  0  0  0  0  0  0  0  0  0  0
   -1.3636    0.8112   -0.8423 C   0  0  0  0  0  0  0  0  0  0  0  0
    0.0034    1.1758   -0.6531 C   0  0  0  0  0  0  0  0  0  0  0  0
    0.8944    0.3684    0.0382 C   0  0  0  0  0  0  0  0  0  0  0  0
    2.3034    0.8145    0.2008 N   0  0  0  0  0  0  0  0  0  0  0  0
    2.6193    1.8956   -0.2871 O   0  0  0  0  0  0  0  0  0  0  0  0
    3.0668    0.0706    0.8162 O   0  0  0  0  0  0  0  0  0  0  0  0
    0.5505   -0.8753    0.6116 C   0  0  0  0  0  0  0  0  0  0  0  0
   -0.7486   -1.3058    0.4735 C   0  0  0  0  0  0  0  0  0  0  0  0
   -4.0702    3.0317   -1.8512 H   0  0  0  0  0  0  0  0  0  0  0  0
    0.3833    2.1120   -1.0516 H   0  0  0  0  0  0  0  0  0  0  0  0
    1.3009   -1.4521    1.1351 H   0  0  0  0  0  0  0  0  0  0  0  0
   -1.0878   -2.2520    0.8846 H   0  0  0  0  0  0  0  0  0  0  0  0
   -5.6259    2.7919   -0.3963 S   0  0  0  0  0  0  0  0  0  0  0  0
   -4.9441    3.4381   -1.7140 O   0  0  0  0  0  0  0  0  0  0  0  0
   -7.0077    3.2176   -0.4280 O   0  0  0  0  0  0  0  0  0  0  0  0
   -5.2108    1.4105   -0.2677 O   0  0  0  0  0  0  0  0  0  0  0  0
   -4.8623    3.5832    0.8006 O   0  0  0  0  0  0  0  0  0  0  0  0
   -5.3104    4.4372    0.9269 H   0  0  0  0  0  0  0  0  0  0  0  0
  1 11  2  0  0  0  0
  2  1  1  0  0  0  0
  3  2  1  0  0  0  0
  4  5  2  0  0  0  0
  4  1  1  0  0  0  0
  5  6  1  0  0  0  0
  6  7  1  0  0  0  0
  6 10  2  0  0  0  0
  7  9  2  0  0  0  0
  8  7  2  0  0  0  0
 10 14  1  0  0  0  0
 11 10  1  0  0  0  0
 11 15  1  0  0  0  0
 12 17  1  0  0  0  0
 13  5  1  0  0  0  0
 16 19  2  0  0  0  0
 16 20  1  0  0  0  0
 17 16  1  0  0  0  0
 18 16  2  0  0  0  0
 20 21  1  0  0  0  0
M  RAD  3   2   2   3   3   4   2
M  END
