Coordinates from ORCA-job 4-NO2PhN2+~HSO4-_B3LYPG-6-31G_dp-CH-Scan-d09-49-n800
 OpenBabel11261919243D

 21 20  0  0  0  0  0  0  0  0999 V2000
   -1.5948   -0.4271   -0.2433 C   0  0  0  0  0  0  0  0  0  0  0  0
   -2.9263   -0.8509   -0.4017 N   0  0  0  0  0  0  0  0  0  0  0  0
   -3.9923   -1.1343   -0.5699 N   0  0  0  0  0  0  0  0  0  0  0  0
   -1.3502    0.8083   -0.8463 C   0  0  0  0  0  0  0  0  0  0  0  0
    0.0175    1.1696   -0.6556 C   0  0  0  0  0  0  0  0  0  0  0  0
    0.9050    0.3618    0.0398 C   0  0  0  0  0  0  0  0  0  0  0  0
    2.3149    0.8044    0.2038 N   0  0  0  0  0  0  0  0  0  0  0  0
    2.6348    1.8833   -0.2864 O   0  0  0  0  0  0  0  0  0  0  0  0
    3.0752    0.0601    0.8226 O   0  0  0  0  0  0  0  0  0  0  0  0
    0.5566   -0.8793    0.6162 C   0  0  0  0  0  0  0  0  0  0  0  0
   -0.7435   -1.3066    0.4770 C   0  0  0  0  0  0  0  0  0  0  0  0
   -4.1052    3.0541   -1.8686 H   0  0  0  0  0  0  0  0  0  0  0  0
    0.4008    2.1036   -1.0561 H   0  0  0  0  0  0  0  0  0  0  0  0
    1.3044   -1.4568    1.1427 H   0  0  0  0  0  0  0  0  0  0  0  0
   -1.0861   -2.2507    0.8902 H   0  0  0  0  0  0  0  0  0  0  0  0
   -5.6407    2.7963   -0.3953 S   0  0  0  0  0  0  0  0  0  0  0  0
   -4.9800    3.4538   -1.7185 O   0  0  0  0  0  0  0  0  0  0  0  0
   -7.0271    3.2078   -0.4107 O   0  0  0  0  0  0  0  0  0  0  0  0
   -5.2095    1.4191   -0.2764 O   0  0  0  0  0  0  0  0  0  0  0  0
   -4.8724    3.5918    0.7955 O   0  0  0  0  0  0  0  0  0  0  0  0
   -5.3279    4.4407    0.9298 H   0  0  0  0  0  0  0  0  0  0  0  0
  1 11  2  0  0  0  0
  2  1  1  0  0  0  0
  3  2  1  0  0  0  0
  4  5  2  0  0  0  0
  4  1  1  0  0  0  0
  5  6  1  0  0  0  0
  6  7  1  0  0  0  0
  6 10  2  0  0  0  0
  7  9  2  0  0  0  0
  8  7  2  0  0  0  0
 10 14  1  0  0  0  0
 11 10  1  0  0  0  0
 11 15  1  0  0  0  0
 12 17  1  0  0  0  0
 13  5  1  0  0  0  0
 16 19  2  0  0  0  0
 16 20  1  0  0  0  0
 17 16  1  0  0  0  0
 18 16  2  0  0  0  0
 20 21  1  0  0  0  0
M  RAD  3   2   2   3   3   4   2
M  END
