Coordinates from ORCA-job 4-NO2PhN2+~HSO4-_B3LYPG-6-31G_dp-CH-Scan-d09-49-n800
 OpenBabel11261919243D

 21 20  0  0  0  0  0  0  0  0999 V2000
   -1.6105   -0.4260   -0.2456 C   0  0  0  0  0  0  0  0  0  0  0  0
   -2.9396   -0.8564   -0.4032 N   0  0  0  0  0  0  0  0  0  0  0  0
   -4.0038   -1.1485   -0.5653 N   0  0  0  0  0  0  0  0  0  0  0  0
   -1.3709    0.8113   -0.8470 C   0  0  0  0  0  0  0  0  0  0  0  0
   -0.0048    1.1782   -0.6567 C   0  0  0  0  0  0  0  0  0  0  0  0
    0.8868    0.3735    0.0370 C   0  0  0  0  0  0  0  0  0  0  0  0
    2.2948    0.8222    0.2006 N   0  0  0  0  0  0  0  0  0  0  0  0
    2.6112    1.8998   -0.2946 O   0  0  0  0  0  0  0  0  0  0  0  0
    3.0588    0.0801    0.8175 O   0  0  0  0  0  0  0  0  0  0  0  0
    0.5440   -0.8697    0.6122 C   0  0  0  0  0  0  0  0  0  0  0  0
   -0.7545   -1.3023    0.4731 C   0  0  0  0  0  0  0  0  0  0  0  0
   -4.0464    3.0204   -1.8380 H   0  0  0  0  0  0  0  0  0  0  0  0
    0.3742    2.1143   -1.0563 H   0  0  0  0  0  0  0  0  0  0  0  0
    1.2945   -1.4445    1.1378 H   0  0  0  0  0  0  0  0  0  0  0  0
   -1.0927   -2.2483    0.8854 H   0  0  0  0  0  0  0  0  0  0  0  0
   -5.6138    2.7874   -0.3963 S   0  0  0  0  0  0  0  0  0  0  0  0
   -4.9188    3.4309   -1.7080 O   0  0  0  0  0  0  0  0  0  0  0  0
   -6.9927    3.2217   -0.4377 O   0  0  0  0  0  0  0  0  0  0  0  0
   -5.2084    1.4030   -0.2653 O   0  0  0  0  0  0  0  0  0  0  0  0
   -4.8547    3.5729    0.8073 O   0  0  0  0  0  0  0  0  0  0  0  0
   -5.2993    4.4290    0.9318 H   0  0  0  0  0  0  0  0  0  0  0  0
  1 11  2  0  0  0  0
  2  1  1  0  0  0  0
  3  2  1  0  0  0  0
  4  5  2  0  0  0  0
  4  1  1  0  0  0  0
  5  6  1  0  0  0  0
  6  7  1  0  0  0  0
  6 10  2  0  0  0  0
  7  9  2  0  0  0  0
  8  7  2  0  0  0  0
 10 14  1  0  0  0  0
 11 10  1  0  0  0  0
 11 15  1  0  0  0  0
 12 17  1  0  0  0  0
 13  5  1  0  0  0  0
 16 19  2  0  0  0  0
 16 20  1  0  0  0  0
 17 16  1  0  0  0  0
 18 16  2  0  0  0  0
 20 21  1  0  0  0  0
M  RAD  3   2   2   3   3   4   2
M  END
