Coordinates from ORCA-job 4-NO2PhN2+~HSO4-_B3LYPG-6-31G_dp-CH-Scan-d09-49-n800
 OpenBabel11261919243D

 21 20  0  0  0  0  0  0  0  0999 V2000
   -1.5730   -0.4321   -0.2713 C   0  0  0  0  0  0  0  0  0  0  0  0
   -2.9048   -0.8500   -0.4477 N   0  0  0  0  0  0  0  0  0  0  0  0
   -3.9692   -1.1266   -0.6365 N   0  0  0  0  0  0  0  0  0  0  0  0
   -1.3079    0.7827   -0.9054 C   0  0  0  0  0  0  0  0  0  0  0  0
    0.0579    1.1415   -0.6954 C   0  0  0  0  0  0  0  0  0  0  0  0
    0.9242    0.3500    0.0439 C   0  0  0  0  0  0  0  0  0  0  0  0
    2.3328    0.7891    0.2268 N   0  0  0  0  0  0  0  0  0  0  0  0
    2.6709    1.8509   -0.2879 O   0  0  0  0  0  0  0  0  0  0  0  0
    3.0742    0.0593    0.8847 O   0  0  0  0  0  0  0  0  0  0  0  0
    0.5549   -0.8714    0.6493 C   0  0  0  0  0  0  0  0  0  0  0  0
   -0.7445   -1.2953    0.4937 C   0  0  0  0  0  0  0  0  0  0  0  0
   -4.2176    3.1108   -1.9260 H   0  0  0  0  0  0  0  0  0  0  0  0
    0.4562    2.0606   -1.1156 H   0  0  0  0  0  0  0  0  0  0  0  0
    1.2872   -1.4371    1.2093 H   0  0  0  0  0  0  0  0  0  0  0  0
   -1.1022   -2.2249    0.9266 H   0  0  0  0  0  0  0  0  0  0  0  0
   -5.6647    2.8018   -0.3746 S   0  0  0  0  0  0  0  0  0  0  0  0
   -5.0867    3.4962   -1.7186 O   0  0  0  0  0  0  0  0  0  0  0  0
   -7.0594    3.1794   -0.3139 O   0  0  0  0  0  0  0  0  0  0  0  0
   -5.1946    1.4340   -0.3017 O   0  0  0  0  0  0  0  0  0  0  0  0
   -4.8564    3.5974    0.7889 O   0  0  0  0  0  0  0  0  0  0  0  0
   -5.3240    4.4330    0.9602 H   0  0  0  0  0  0  0  0  0  0  0  0
  1 11  2  0  0  0  0
  2  1  1  0  0  0  0
  3  2  1  0  0  0  0
  4  5  2  0  0  0  0
  4  1  1  0  0  0  0
  5  6  1  0  0  0  0
  6  7  1  0  0  0  0
  6 10  2  0  0  0  0
  7  9  2  0  0  0  0
  8  7  2  0  0  0  0
 10 14  1  0  0  0  0
 11 10  1  0  0  0  0
 11 15  1  0  0  0  0
 12 17  1  0  0  0  0
 13  5  1  0  0  0  0
 16 18  2  0  0  0  0
 16 19  2  0  0  0  0
 16 20  1  0  0  0  0
 17 16  1  0  0  0  0
 20 21  1  0  0  0  0
M  RAD  3   2   2   3   3   4   2
M  END
