Coordinates from ORCA-job 4-NO2PhN2+~HSO4-_B3LYPG-6-31G_dp-CH-Scan-d09-49-n800
 OpenBabel11261919243D

 21 20  0  0  0  0  0  0  0  0999 V2000
   -1.5676   -0.3919   -0.1140 C   0  0  0  0  0  0  0  0  0  0  0  0
   -2.9168   -0.7791   -0.1884 N   0  0  0  0  0  0  0  0  0  0  0  0
   -3.9989   -1.0355   -0.2796 N   0  0  0  0  0  0  0  0  0  0  0  0
   -1.3410    0.8862   -0.6304 C   0  0  0  0  0  0  0  0  0  0  0  0
    0.0464    1.2045   -0.5271 C   0  0  0  0  0  0  0  0  0  0  0  0
    0.9684    0.3229    0.0175 C   0  0  0  0  0  0  0  0  0  0  0  0
    2.3984    0.7229    0.0943 N   0  0  0  0  0  0  0  0  0  0  0  0
    2.7026    1.8357   -0.3249 O   0  0  0  0  0  0  0  0  0  0  0  0
    3.1893   -0.0885    0.5748 O   0  0  0  0  0  0  0  0  0  0  0  0
    0.6376   -0.9563    0.5154 C   0  0  0  0  0  0  0  0  0  0  0  0
   -0.6806   -1.3449    0.4541 C   0  0  0  0  0  0  0  0  0  0  0  0
   -3.9368    3.0799   -1.6328 H   0  0  0  0  0  0  0  0  0  0  0  0
    0.4186    2.1623   -0.8786 H   0  0  0  0  0  0  0  0  0  0  0  0
    1.4114   -1.5909    0.9253 H   0  0  0  0  0  0  0  0  0  0  0  0
   -1.0116   -2.3137    0.8166 H   0  0  0  0  0  0  0  0  0  0  0  0
   -5.7387    2.8268   -0.5029 S   0  0  0  0  0  0  0  0  0  0  0  0
   -4.8268    3.4730   -1.6722 O   0  0  0  0  0  0  0  0  0  0  0  0
   -7.0986    3.2065   -0.8162 O   0  0  0  0  0  0  0  0  0  0  0  0
   -5.3176    1.4619   -0.2629 O   0  0  0  0  0  0  0  0  0  0  0  0
   -5.2513    3.6612    0.8045 O   0  0  0  0  0  0  0  0  0  0  0  0
   -5.7330    4.5061    0.8163 H   0  0  0  0  0  0  0  0  0  0  0  0
  1 11  2  0  0  0  0
  2  1  1  0  0  0  0
  3  2  1  0  0  0  0
  4  5  2  0  0  0  0
  4  1  1  0  0  0  0
  5  6  1  0  0  0  0
  6  7  1  0  0  0  0
  6 10  2  0  0  0  0
  7  9  2  0  0  0  0
  8  7  2  0  0  0  0
 10 14  1  0  0  0  0
 11 10  1  0  0  0  0
 11 15  1  0  0  0  0
 13  5  1  0  0  0  0
 16 19  2  0  0  0  0
 16 20  1  0  0  0  0
 17 12  1  0  0  0  0
 17 16  1  0  0  0  0
 18 16  2  0  0  0  0
 20 21  1  0  0  0  0
M  RAD  3   2   2   3   3   4   2
M  END
