Coordinates from ORCA-job 4-NO2PhN2+~HSO4-_B3LYPG-6-31G_dp-CH-Scan-d09-49-n800
 OpenBabel11261919243D

 21 20  0  0  0  0  0  0  0  0999 V2000
   -1.9038   -0.3506   -0.1669 C   0  0  0  0  0  0  0  0  0  0  0  0
   -3.2010   -0.8628   -0.2456 N   0  0  0  0  0  0  0  0  0  0  0  0
   -4.2476   -1.2349   -0.3228 N   0  0  0  0  0  0  0  0  0  0  0  0
   -1.7640    0.9843   -0.5720 C   0  0  0  0  0  0  0  0  0  0  0  0
   -0.4164    1.4121   -0.4696 C   0  0  0  0  0  0  0  0  0  0  0  0
    0.5869    0.5657   -0.0191 C   0  0  0  0  0  0  0  0  0  0  0  0
    1.9811    1.0764    0.0624 N   0  0  0  0  0  0  0  0  0  0  0  0
    2.1805    2.2357   -0.2839 O   0  0  0  0  0  0  0  0  0  0  0  0
    2.8412    0.2992    0.4724 O   0  0  0  0  0  0  0  0  0  0  0  0
    0.3682   -0.7677    0.3731 C   0  0  0  0  0  0  0  0  0  0  0  0
   -0.9176   -1.2561    0.3007 C   0  0  0  0  0  0  0  0  0  0  0  0
   -3.0843    2.0619   -1.0893 H   0  0  0  0  0  0  0  0  0  0  0  0
   -0.1414    2.4246   -0.7454 H   0  0  0  0  0  0  0  0  0  0  0  0
    1.1971   -1.3716    0.7168 H   0  0  0  0  0  0  0  0  0  0  0  0
   -1.1593   -2.2743    0.5880 H   0  0  0  0  0  0  0  0  0  0  0  0
   -5.0930    2.6135   -0.4354 S   0  0  0  0  0  0  0  0  0  0  0  0
   -3.8503    2.7101   -1.3972 O   0  0  0  0  0  0  0  0  0  0  0  0
   -6.2352    3.2093   -1.1044 O   0  0  0  0  0  0  0  0  0  0  0  0
   -5.1590    1.2845    0.1615 O   0  0  0  0  0  0  0  0  0  0  0  0
   -4.6789    3.5953    0.8068 O   0  0  0  0  0  0  0  0  0  0  0  0
   -4.9502    4.4947    0.5585 H   0  0  0  0  0  0  0  0  0  0  0  0
  1 11  2  0  0  0  0
  2  1  1  0  0  0  0
  3  2  1  0  0  0  0
  4  5  2  0  0  0  0
  4  1  1  0  0  0  0
  5  6  1  0  0  0  0
  6  7  1  0  0  0  0
  6 10  2  0  0  0  0
  7  9  2  0  0  0  0
  8  7  2  0  0  0  0
 10 14  1  0  0  0  0
 11 10  1  0  0  0  0
 11 15  1  0  0  0  0
 13  5  1  0  0  0  0
 16 19  2  0  0  0  0
 16 20  1  0  0  0  0
 17 12  1  0  0  0  0
 17 16  1  0  0  0  0
 18 16  2  0  0  0  0
 21 20  1  0  0  0  0
M  RAD  3   2   2   3   3   4   2
M  END
