Coordinates from ORCA-job 4-NO2PhN2+~HSO4-_B3LYPG-6-31G_dp-CH-Scan-d09-49-n800
 OpenBabel11261919243D

 21 20  0  0  0  0  0  0  0  0999 V2000
   -1.6814   -0.4981   -0.6722 C   0  0  0  0  0  0  0  0  0  0  0  0
   -2.9166   -1.0328   -1.0811 N   0  0  0  0  0  0  0  0  0  0  0  0
   -3.8876   -1.4087   -1.4826 N   0  0  0  0  0  0  0  0  0  0  0  0
   -1.2271    0.4834   -1.5525 C   0  0  0  0  0  0  0  0  0  0  0  0
    0.0281    0.9879   -1.0963 C   0  0  0  0  0  0  0  0  0  0  0  0
    0.6309    0.5237    0.0637 C   0  0  0  0  0  0  0  0  0  0  0  0
    1.9325    1.1030    0.4881 N   0  0  0  0  0  0  0  0  0  0  0  0
    2.4136    1.9952   -0.2048 O   0  0  0  0  0  0  0  0  0  0  0  0
    2.4495    0.6526    1.5104 O   0  0  0  0  0  0  0  0  0  0  0  0
    0.0832   -0.4828    0.8900 C   0  0  0  0  0  0  0  0  0  0  0  0
   -1.1239   -1.0290    0.5197 C   0  0  0  0  0  0  0  0  0  0  0  0
   -4.6216    2.9944   -2.0729 H   0  0  0  0  0  0  0  0  0  0  0  0
    0.5467    1.7622   -1.6547 H   0  0  0  0  0  0  0  0  0  0  0  0
    0.6133   -0.7959    1.7792 H   0  0  0  0  0  0  0  0  0  0  0  0
   -1.6082   -1.8065    1.1033 H   0  0  0  0  0  0  0  0  0  0  0  0
   -5.1215    2.5659   -0.0310 S   0  0  0  0  0  0  0  0  0  0  0  0
   -5.2517    3.3689   -1.4329 O   0  0  0  0  0  0  0  0  0  0  0  0
   -6.2824    2.9462    0.7418 O   0  0  0  0  0  0  0  0  0  0  0  0
   -4.7468    1.1933   -0.3038 O   0  0  0  0  0  0  0  0  0  0  0  0
   -3.8030    3.2473    0.6253 O   0  0  0  0  0  0  0  0  0  0  0  0
   -4.0726    4.0789    1.0521 H   0  0  0  0  0  0  0  0  0  0  0  0
  1 11  2  0  0  0  0
  2  1  1  0  0  0  0
  3  2  1  0  0  0  0
  4  5  2  0  0  0  0
  4  1  1  0  0  0  0
  5  6  1  0  0  0  0
  6  7  1  0  0  0  0
  6 10  2  0  0  0  0
  7  9  2  0  0  0  0
  8  7  2  0  0  0  0
 10 14  1  0  0  0  0
 11 10  1  0  0  0  0
 11 15  1  0  0  0  0
 12 17  1  0  0  0  0
 13  5  1  0  0  0  0
 16 20  1  0  0  0  0
 16 18  2  0  0  0  0
 17 16  1  0  0  0  0
 19 16  2  0  0  0  0
 20 21  1  0  0  0  0
M  RAD  3   2   2   3   3   4   2
M  END
