Coordinates from ORCA-job 4-NO2PhN2+~HSO4-_B3LYPG-6-31G_dp-CH-Scan-d09-49-n800
 OpenBabel11261919243D

 21 20  0  0  0  0  0  0  0  0999 V2000
   -2.0189    0.0576   -0.3521 C   0  0  0  0  0  0  0  0  0  0  0  0
   -3.3695   -0.2116   -0.5483 N   0  0  0  0  0  0  0  0  0  0  0  0
   -4.4391   -0.4597   -0.7735 N   0  0  0  0  0  0  0  0  0  0  0  0
   -1.5171    1.3240   -0.6911 C   0  0  0  0  0  0  0  0  0  0  0  0
   -0.1510    1.5271   -0.5196 C   0  0  0  0  0  0  0  0  0  0  0  0
    0.6337    0.4955   -0.0094 C   0  0  0  0  0  0  0  0  0  0  0  0
    2.0857    0.7337    0.1786 N   0  0  0  0  0  0  0  0  0  0  0  0
    2.5189    1.8349   -0.1414 O   0  0  0  0  0  0  0  0  0  0  0  0
    2.7478   -0.1917    0.6398 O   0  0  0  0  0  0  0  0  0  0  0  0
    0.1233   -0.7567    0.3349 C   0  0  0  0  0  0  0  0  0  0  0  0
   -1.2318   -0.9903    0.1537 C   0  0  0  0  0  0  0  0  0  0  0  0
   -2.1837    2.1086   -1.0648 H   0  0  0  0  0  0  0  0  0  0  0  0
    0.3047    2.4783   -0.7634 H   0  0  0  0  0  0  0  0  0  0  0  0
    0.7850   -1.5174    0.7277 H   0  0  0  0  0  0  0  0  0  0  0  0
   -1.6770   -1.9472    0.4002 H   0  0  0  0  0  0  0  0  0  0  0  0
   -4.7404    2.5442   -0.3041 S   0  0  0  0  0  0  0  0  0  0  0  0
   -3.9798    3.1954   -1.3832 O   0  0  0  0  0  0  0  0  0  0  0  0
   -5.7127    1.4956   -0.7566 O   0  0  0  0  0  0  0  0  0  0  0  0
   -3.8903    2.0249    0.8014 O   0  0  0  0  0  0  0  0  0  0  0  0
   -5.6602    3.7556    0.3140 O   0  0  0  0  0  0  0  0  0  0  0  0
   -6.2742    3.3482    0.9462 H   0  0  0  0  0  0  0  0  0  0  0  0
  1 11  2  0  0  0  0
  2  1  1  0  0  0  0
  3  2  1  0  0  0  0
  4  5  2  0  0  0  0
  4  1  1  0  0  0  0
  5  6  1  0  0  0  0
  6  7  1  0  0  0  0
  6 10  2  0  0  0  0
  7  9  2  0  0  0  0
  8  7  2  0  0  0  0
 10 14  1  0  0  0  0
 11 10  1  0  0  0  0
 11 15  1  0  0  0  0
 12  4  1  0  0  0  0
 13  5  1  0  0  0  0
 16 20  1  0  0  0  0
 16 19  1  0  0  0  0
 17 16  2  0  0  0  0
 18 16  2  0  0  0  0
 20 21  1  0  0  0  0
M  RAD  3   2   2   3   3  19   2
M  END
