Coordinates from ORCA-job 4-NO2PhN2+~HSO4-_B3LYPG-6-31G_dp-CH-Scan-d09-49-n800
 OpenBabel11261919243D

 21 20  0  0  0  0  0  0  0  0999 V2000
   -1.5671   -0.3929   -0.1170 C   0  0  0  0  0  0  0  0  0  0  0  0
   -2.9161   -0.7804   -0.1932 N   0  0  0  0  0  0  0  0  0  0  0  0
   -3.9983   -1.0364   -0.2850 N   0  0  0  0  0  0  0  0  0  0  0  0
   -1.3400    0.8843   -0.6355 C   0  0  0  0  0  0  0  0  0  0  0  0
    0.0472    1.2030   -0.5301 C   0  0  0  0  0  0  0  0  0  0  0  0
    0.9683    0.3228    0.0182 C   0  0  0  0  0  0  0  0  0  0  0  0
    2.3981    0.7234    0.0972 N   0  0  0  0  0  0  0  0  0  0  0  0
    2.7027    1.8355   -0.3233 O   0  0  0  0  0  0  0  0  0  0  0  0
    3.1883   -0.0869    0.5806 O   0  0  0  0  0  0  0  0  0  0  0  0
    0.6369   -0.9555    0.5180 C   0  0  0  0  0  0  0  0  0  0  0  0
   -0.6810   -1.3446    0.4548 C   0  0  0  0  0  0  0  0  0  0  0  0
   -3.9435    3.0838   -1.6405 H   0  0  0  0  0  0  0  0  0  0  0  0
    0.4199    2.1602   -0.8827 H   0  0  0  0  0  0  0  0  0  0  0  0
    1.4101   -1.5891    0.9307 H   0  0  0  0  0  0  0  0  0  0  0  0
   -1.0126   -2.3127    0.8186 H   0  0  0  0  0  0  0  0  0  0  0  0
   -5.7386    2.8266   -0.5007 S   0  0  0  0  0  0  0  0  0  0  0  0
   -4.8346    3.4747   -1.6752 O   0  0  0  0  0  0  0  0  0  0  0  0
   -7.1009    3.2049   -0.8054 O   0  0  0  0  0  0  0  0  0  0  0  0
   -5.3141    1.4623   -0.2645 O   0  0  0  0  0  0  0  0  0  0  0  0
   -5.2442    3.6609    0.8041 O   0  0  0  0  0  0  0  0  0  0  0  0
   -5.7271    4.5050    0.8195 H   0  0  0  0  0  0  0  0  0  0  0  0
  1 11  2  0  0  0  0
  2  1  1  0  0  0  0
  3  2  1  0  0  0  0
  4  5  2  0  0  0  0
  4  1  1  0  0  0  0
  5  6  1  0  0  0  0
  6  7  1  0  0  0  0
  6 10  2  0  0  0  0
  7  9  2  0  0  0  0
  8  7  2  0  0  0  0
 10 14  1  0  0  0  0
 11 10  1  0  0  0  0
 11 15  1  0  0  0  0
 13  5  1  0  0  0  0
 16 19  2  0  0  0  0
 16 20  1  0  0  0  0
 17 12  1  0  0  0  0
 17 16  1  0  0  0  0
 18 16  2  0  0  0  0
 20 21  1  0  0  0  0
M  RAD  3   2   2   3   3   4   2
M  END
