Coordinates from ORCA-job 4-NO2PhN2+~HSO4-_B3LYPG-6-31G_dp-CH-Scan-d09-49-n800
 OpenBabel11261919243D

 21 20  0  0  0  0  0  0  0  0999 V2000
   -1.7812   -0.3661   -0.1268 C   0  0  0  0  0  0  0  0  0  0  0  0
   -3.0977   -0.8371   -0.1920 N   0  0  0  0  0  0  0  0  0  0  0  0
   -4.1576   -1.1745   -0.2633 N   0  0  0  0  0  0  0  0  0  0  0  0
   -1.6214    0.9559   -0.5605 C   0  0  0  0  0  0  0  0  0  0  0  0
   -0.2565    1.3458   -0.4692 C   0  0  0  0  0  0  0  0  0  0  0  0
    0.7258    0.4817   -0.0075 C   0  0  0  0  0  0  0  0  0  0  0  0
    2.1340    0.9548    0.0590 N   0  0  0  0  0  0  0  0  0  0  0  0
    2.3650    2.1040   -0.3027 O   0  0  0  0  0  0  0  0  0  0  0  0
    2.9762    0.1624    0.4785 O   0  0  0  0  0  0  0  0  0  0  0  0
    0.4754   -0.8403    0.4119 C   0  0  0  0  0  0  0  0  0  0  0  0
   -0.8222   -1.2955    0.3555 C   0  0  0  0  0  0  0  0  0  0  0  0
   -3.3789    2.4074   -1.2686 H   0  0  0  0  0  0  0  0  0  0  0  0
    0.0505    2.3439   -0.7645 H   0  0  0  0  0  0  0  0  0  0  0  0
    1.2911   -1.4582    0.7622 H   0  0  0  0  0  0  0  0  0  0  0  0
   -1.0901   -2.3016    0.6629 H   0  0  0  0  0  0  0  0  0  0  0  0
   -5.3509    2.6970   -0.4764 S   0  0  0  0  0  0  0  0  0  0  0  0
   -4.1593    2.9671   -1.5089 O   0  0  0  0  0  0  0  0  0  0  0  0
   -6.5376    3.2920   -1.0554 O   0  0  0  0  0  0  0  0  0  0  0  0
   -5.3025    1.3214   -0.0138 O   0  0  0  0  0  0  0  0  0  0  0  0
   -4.9086    3.5878    0.8150 O   0  0  0  0  0  0  0  0  0  0  0  0
   -5.2001    4.5012    0.6532 H   0  0  0  0  0  0  0  0  0  0  0  0
  1 11  2  0  0  0  0
  2  1  1  0  0  0  0
  3  2  1  0  0  0  0
  4  5  2  0  0  0  0
  4  1  1  0  0  0  0
  5  6  1  0  0  0  0
  6  7  1  0  0  0  0
  6 10  2  0  0  0  0
  7  9  2  0  0  0  0
  8  7  2  0  0  0  0
 10 14  1  0  0  0  0
 11 10  1  0  0  0  0
 11 15  1  0  0  0  0
 13  5  1  0  0  0  0
 16 19  2  0  0  0  0
 16 20  1  0  0  0  0
 17 12  1  0  0  0  0
 17 16  1  0  0  0  0
 18 16  2  0  0  0  0
 21 20  1  0  0  0  0
M  RAD  3   2   2   3   3   4   2
M  END
