Coordinates from ORCA-job 4-NO2PhN2+~HSO4-_B3LYPG-6-31G_dp-CH-Scan-d09-49-n800
 OpenBabel11261919243D

 21 20  0  0  0  0  0  0  0  0999 V2000
   -1.5824   -0.4296   -0.2578 C   0  0  0  0  0  0  0  0  0  0  0  0
   -2.9142   -0.8499   -0.4257 N   0  0  0  0  0  0  0  0  0  0  0  0
   -3.9799   -1.1291   -0.6033 N   0  0  0  0  0  0  0  0  0  0  0  0
   -1.3272    0.7957   -0.8759 C   0  0  0  0  0  0  0  0  0  0  0  0
    0.0396    1.1554   -0.6749 C   0  0  0  0  0  0  0  0  0  0  0  0
    0.9161    0.3552    0.0427 C   0  0  0  0  0  0  0  0  0  0  0  0
    2.3254    0.7958    0.2170 N   0  0  0  0  0  0  0  0  0  0  0  0
    2.6552    1.8655   -0.2866 O   0  0  0  0  0  0  0  0  0  0  0  0
    3.0762    0.0577    0.8547 O   0  0  0  0  0  0  0  0  0  0  0  0
    0.5569   -0.8764    0.6331 C   0  0  0  0  0  0  0  0  0  0  0  0
   -0.7429   -1.3017    0.4850 C   0  0  0  0  0  0  0  0  0  0  0  0
   -4.1685    3.0817   -1.9030 H   0  0  0  0  0  0  0  0  0  0  0  0
    0.4306    2.0822   -1.0848 H   0  0  0  0  0  0  0  0  0  0  0  0
    1.2968   -1.4484    1.1765 H   0  0  0  0  0  0  0  0  0  0  0  0
   -1.0933   -2.2387    0.9076 H   0  0  0  0  0  0  0  0  0  0  0  0
   -5.6551    2.8002   -0.3843 S   0  0  0  0  0  0  0  0  0  0  0  0
   -5.0390    3.4765   -1.7200 O   0  0  0  0  0  0  0  0  0  0  0  0
   -7.0465    3.1936   -0.3585 O   0  0  0  0  0  0  0  0  0  0  0  0
   -5.2025    1.4280   -0.2889 O   0  0  0  0  0  0  0  0  0  0  0  0
   -4.8648    3.5966    0.7912 O   0  0  0  0  0  0  0  0  0  0  0  0
   -5.3272    4.4385    0.9448 H   0  0  0  0  0  0  0  0  0  0  0  0
  1 11  2  0  0  0  0
  2  1  1  0  0  0  0
  3  2  1  0  0  0  0
  4  5  2  0  0  0  0
  4  1  1  0  0  0  0
  5  6  1  0  0  0  0
  6  7  1  0  0  0  0
  6 10  2  0  0  0  0
  7  9  2  0  0  0  0
  8  7  2  0  0  0  0
 10 14  1  0  0  0  0
 11 10  1  0  0  0  0
 11 15  1  0  0  0  0
 12 17  1  0  0  0  0
 13  5  1  0  0  0  0
 16 18  2  0  0  0  0
 16 19  2  0  0  0  0
 16 20  1  0  0  0  0
 17 16  1  0  0  0  0
 20 21  1  0  0  0  0
M  RAD  3   2   2   3   3   4   2
M  END
