Coordinates from ORCA-job 4-NO2PhN2+~HSO4-_B3LYPG-6-31G_dp-CH-Scan-d09-49-n800
 OpenBabel11261919243D

 21 20  0  0  0  0  0  0  0  0999 V2000
   -1.8406   -0.3605   -0.1391 C   0  0  0  0  0  0  0  0  0  0  0  0
   -3.1475   -0.8535   -0.2059 N   0  0  0  0  0  0  0  0  0  0  0  0
   -4.2012   -1.2087   -0.2752 N   0  0  0  0  0  0  0  0  0  0  0  0
   -1.6958    0.9685   -0.5591 C   0  0  0  0  0  0  0  0  0  0  0  0
   -0.3388    1.3786   -0.4654 C   0  0  0  0  0  0  0  0  0  0  0  0
    0.6567    0.5248   -0.0125 C   0  0  0  0  0  0  0  0  0  0  0  0
    2.0575    1.0188    0.0579 N   0  0  0  0  0  0  0  0  0  0  0  0
    2.2702    2.1739   -0.2954 O   0  0  0  0  0  0  0  0  0  0  0  0
    2.9116    0.2341    0.4670 O   0  0  0  0  0  0  0  0  0  0  0  0
    0.4256   -0.8040    0.3933 C   0  0  0  0  0  0  0  0  0  0  0  0
   -0.8655   -1.2776    0.3327 C   0  0  0  0  0  0  0  0  0  0  0  0
   -3.2454    2.2421   -1.1861 H   0  0  0  0  0  0  0  0  0  0  0  0
   -0.0488    2.3843   -0.7514 H   0  0  0  0  0  0  0  0  0  0  0  0
    1.2501   -1.4138    0.7372 H   0  0  0  0  0  0  0  0  0  0  0  0
   -1.1182   -2.2904    0.6302 H   0  0  0  0  0  0  0  0  0  0  0  0
   -5.2318    2.6593   -0.4672 S   0  0  0  0  0  0  0  0  0  0  0  0
   -4.0051    2.8406   -1.4631 O   0  0  0  0  0  0  0  0  0  0  0  0
   -6.3799    3.2888   -1.0885 O   0  0  0  0  0  0  0  0  0  0  0  0
   -5.2652    1.2960    0.0379 O   0  0  0  0  0  0  0  0  0  0  0  0
   -4.7904    3.5647    0.8174 O   0  0  0  0  0  0  0  0  0  0  0  0
   -5.0442    4.4829    0.6240 H   0  0  0  0  0  0  0  0  0  0  0  0
  1 11  2  0  0  0  0
  2  1  1  0  0  0  0
  3  2  1  0  0  0  0
  4  5  2  0  0  0  0
  4  1  1  0  0  0  0
  5  6  1  0  0  0  0
  6  7  1  0  0  0  0
  6 10  2  0  0  0  0
  7  9  2  0  0  0  0
  8  7  2  0  0  0  0
 10 14  1  0  0  0  0
 11 10  1  0  0  0  0
 11 15  1  0  0  0  0
 13  5  1  0  0  0  0
 16 19  2  0  0  0  0
 16 20  1  0  0  0  0
 17 12  1  0  0  0  0
 17 16  1  0  0  0  0
 18 16  2  0  0  0  0
 21 20  1  0  0  0  0
M  RAD  3   2   2   3   3   4   2
M  END
