Coordinates from ORCA-job 4-NO2PhN2+~HSO4-_B3LYPG-6-31G_dp-CH-Scan-d09-49-n800
 OpenBabel11261919243D

 21 20  0  0  0  0  0  0  0  0999 V2000
   -1.9056   -0.3501   -0.1677 C   0  0  0  0  0  0  0  0  0  0  0  0
   -3.2026   -0.8626   -0.2467 N   0  0  0  0  0  0  0  0  0  0  0  0
   -4.2490   -1.2351   -0.3241 N   0  0  0  0  0  0  0  0  0  0  0  0
   -1.7655    0.9849   -0.5722 C   0  0  0  0  0  0  0  0  0  0  0  0
   -0.4182    1.4131   -0.4697 C   0  0  0  0  0  0  0  0  0  0  0  0
    0.5852    0.5667   -0.0194 C   0  0  0  0  0  0  0  0  0  0  0  0
    1.9793    1.0776    0.0624 N   0  0  0  0  0  0  0  0  0  0  0  0
    2.1785    2.2369   -0.2836 O   0  0  0  0  0  0  0  0  0  0  0  0
    2.8393    0.3005    0.4724 O   0  0  0  0  0  0  0  0  0  0  0  0
    0.3665   -0.7668    0.3724 C   0  0  0  0  0  0  0  0  0  0  0  0
   -0.9192   -1.2555    0.2996 C   0  0  0  0  0  0  0  0  0  0  0  0
   -3.0786    2.0567   -1.0859 H   0  0  0  0  0  0  0  0  0  0  0  0
   -0.1436    2.4257   -0.7451 H   0  0  0  0  0  0  0  0  0  0  0  0
    1.1955   -1.3708    0.7159 H   0  0  0  0  0  0  0  0  0  0  0  0
   -1.1608   -2.2737    0.5866 H   0  0  0  0  0  0  0  0  0  0  0  0
   -5.0888    2.6121   -0.4344 S   0  0  0  0  0  0  0  0  0  0  0  0
   -3.8456    2.7070   -1.3946 O   0  0  0  0  0  0  0  0  0  0  0  0
   -6.2315    3.2053   -1.1051 O   0  0  0  0  0  0  0  0  0  0  0  0
   -5.1547    1.2845    0.1659 O   0  0  0  0  0  0  0  0  0  0  0  0
   -4.6769    3.5972    0.8062 O   0  0  0  0  0  0  0  0  0  0  0  0
   -4.9503    4.4954    0.5560 H   0  0  0  0  0  0  0  0  0  0  0  0
  1 11  2  0  0  0  0
  2  1  1  0  0  0  0
  3  2  1  0  0  0  0
  4  5  2  0  0  0  0
  4  1  1  0  0  0  0
  5  6  1  0  0  0  0
  6  7  1  0  0  0  0
  6 10  2  0  0  0  0
  7  9  2  0  0  0  0
  8  7  2  0  0  0  0
 10 14  1  0  0  0  0
 11 10  1  0  0  0  0
 11 15  1  0  0  0  0
 13  5  1  0  0  0  0
 16 19  2  0  0  0  0
 16 20  1  0  0  0  0
 17 12  1  0  0  0  0
 17 16  1  0  0  0  0
 18 16  2  0  0  0  0
 21 20  1  0  0  0  0
M  RAD  3   2   2   3   3   4   2
M  END
