Coordinates from ORCA-job 4-NO2PhN2+~HSO4-_B3LYPG-6-31G_dp-CH-Scan-d09-49-n800
 OpenBabel11261919243D

 21 20  0  0  0  0  0  0  0  0999 V2000
   -1.7802   -0.3662   -0.1265 C   0  0  0  0  0  0  0  0  0  0  0  0
   -3.0968   -0.8369   -0.1919 N   0  0  0  0  0  0  0  0  0  0  0  0
   -4.1568   -1.1739   -0.2629 N   0  0  0  0  0  0  0  0  0  0  0  0
   -1.6202    0.9557   -0.5605 C   0  0  0  0  0  0  0  0  0  0  0  0
   -0.2552    1.3453   -0.4690 C   0  0  0  0  0  0  0  0  0  0  0  0
    0.7269    0.4811   -0.0069 C   0  0  0  0  0  0  0  0  0  0  0  0
    2.1352    0.9539    0.0598 N   0  0  0  0  0  0  0  0  0  0  0  0
    2.3668    2.1023   -0.3043 O   0  0  0  0  0  0  0  0  0  0  0  0
    2.9776    0.1606    0.4773 O   0  0  0  0  0  0  0  0  0  0  0  0
    0.4762   -0.8408    0.4127 C   0  0  0  0  0  0  0  0  0  0  0  0
   -0.8214   -1.2957    0.3561 C   0  0  0  0  0  0  0  0  0  0  0  0
   -3.3808    2.4109   -1.2700 H   0  0  0  0  0  0  0  0  0  0  0  0
    0.0522    2.3433   -0.7643 H   0  0  0  0  0  0  0  0  0  0  0  0
    1.2917   -1.4588    0.7632 H   0  0  0  0  0  0  0  0  0  0  0  0
   -1.0896   -2.3017    0.6637 H   0  0  0  0  0  0  0  0  0  0  0  0
   -5.3530    2.6976   -0.4768 S   0  0  0  0  0  0  0  0  0  0  0  0
   -4.1618    2.9698   -1.5095 O   0  0  0  0  0  0  0  0  0  0  0  0
   -6.5402    3.2921   -1.0551 O   0  0  0  0  0  0  0  0  0  0  0  0
   -5.3030    1.3217   -0.0156 O   0  0  0  0  0  0  0  0  0  0  0  0
   -4.9111    3.5877    0.8151 O   0  0  0  0  0  0  0  0  0  0  0  0
   -5.2032    4.5010    0.6542 H   0  0  0  0  0  0  0  0  0  0  0  0
  1 11  2  0  0  0  0
  2  1  1  0  0  0  0
  3  2  1  0  0  0  0
  4  5  2  0  0  0  0
  4  1  1  0  0  0  0
  5  6  1  0  0  0  0
  6  7  1  0  0  0  0
  6 10  2  0  0  0  0
  7  9  2  0  0  0  0
  8  7  2  0  0  0  0
 10 14  1  0  0  0  0
 11 10  1  0  0  0  0
 11 15  1  0  0  0  0
 13  5  1  0  0  0  0
 16 19  2  0  0  0  0
 16 20  1  0  0  0  0
 17 12  1  0  0  0  0
 17 16  1  0  0  0  0
 18 16  2  0  0  0  0
 21 20  1  0  0  0  0
M  RAD  3   2   2   3   3   4   2
M  END
