Coordinates from ORCA-job 4-NO2PhN2+~HSO4-_B3LYPG-6-31G_dp-CH-Scan-d09-49-n800
 OpenBabel11261919243D

 21 20  0  0  0  0  0  0  0  0999 V2000
   -1.6364   -0.3793   -0.0962 C   0  0  0  0  0  0  0  0  0  0  0  0
   -2.9763   -0.7930   -0.1551 N   0  0  0  0  0  0  0  0  0  0  0  0
   -4.0516   -1.0786   -0.2342 N   0  0  0  0  0  0  0  0  0  0  0  0
   -1.4352    0.9178   -0.5780 C   0  0  0  0  0  0  0  0  0  0  0  0
   -0.0526    1.2558   -0.4924 C   0  0  0  0  0  0  0  0  0  0  0  0
    0.8939    0.3727    0.0059 C   0  0  0  0  0  0  0  0  0  0  0  0
    2.3191    0.7929    0.0642 N   0  0  0  0  0  0  0  0  0  0  0  0
    2.5991    1.9154   -0.3452 O   0  0  0  0  0  0  0  0  0  0  0  0
    3.1320   -0.0211    0.5011 O   0  0  0  0  0  0  0  0  0  0  0  0
    0.5924   -0.9247    0.4721 C   0  0  0  0  0  0  0  0  0  0  0  0
   -0.7208   -1.3319    0.4257 C   0  0  0  0  0  0  0  0  0  0  0  0
   -3.7092    2.8625   -1.4717 H   0  0  0  0  0  0  0  0  0  0  0  0
    0.2968    2.2297   -0.8215 H   0  0  0  0  0  0  0  0  0  0  0  0
    1.3835   -1.5591    0.8482 H   0  0  0  0  0  0  0  0  0  0  0  0
   -1.0292   -2.3156    0.7670 H   0  0  0  0  0  0  0  0  0  0  0  0
   -5.6231    2.7897   -0.5146 S   0  0  0  0  0  0  0  0  0  0  0  0
   -4.5577    3.3269   -1.6008 O   0  0  0  0  0  0  0  0  0  0  0  0
   -6.9148    3.2601   -0.9653 O   0  0  0  0  0  0  0  0  0  0  0  0
   -5.3392    1.4039   -0.1996 O   0  0  0  0  0  0  0  0  0  0  0  0
   -5.2015    3.6234    0.8171 O   0  0  0  0  0  0  0  0  0  0  0  0
   -5.6158    4.5015    0.7619 H   0  0  0  0  0  0  0  0  0  0  0  0
  1 11  2  0  0  0  0
  2  1  1  0  0  0  0
  3  2  1  0  0  0  0
  4  5  2  0  0  0  0
  4  1  1  0  0  0  0
  5  6  1  0  0  0  0
  6  7  1  0  0  0  0
  6 10  2  0  0  0  0
  7  9  2  0  0  0  0
  8  7  2  0  0  0  0
 10 14  1  0  0  0  0
 11 10  1  0  0  0  0
 11 15  1  0  0  0  0
 13  5  1  0  0  0  0
 16 19  2  0  0  0  0
 16 20  1  0  0  0  0
 17 12  1  0  0  0  0
 17 16  1  0  0  0  0
 18 16  2  0  0  0  0
 21 20  1  0  0  0  0
M  RAD  3   2   2   3   3   4   2
M  END
