Coordinates from ORCA-job 4-NO2PhN2+~HSO4-_B3LYPG-6-31G_dp-CH-Scan-d09-49-n800
 OpenBabel11261919243D

 21 20  0  0  0  0  0  0  0  0999 V2000
   -1.6208   -0.4929   -1.0549 C   0  0  0  0  0  0  0  0  0  0  0  0
   -2.8254   -1.0946   -1.4740 N   0  0  0  0  0  0  0  0  0  0  0  0
   -3.7315   -1.5964   -1.8881 N   0  0  0  0  0  0  0  0  0  0  0  0
   -0.6148   -0.6434   -2.0066 C   0  0  0  0  0  0  0  0  0  0  0  0
    0.5763    0.0017   -1.5472 C   0  0  0  0  0  0  0  0  0  0  0  0
    0.6301    0.6705   -0.3342 C   0  0  0  0  0  0  0  0  0  0  0  0
    1.8910    1.3455    0.0717 N   0  0  0  0  0  0  0  0  0  0  0  0
    2.8580    1.2483   -0.6769 O   0  0  0  0  0  0  0  0  0  0  0  0
    1.8850    1.9642    1.1368 O   0  0  0  0  0  0  0  0  0  0  0  0
   -0.4537    0.7523    0.5711 C   0  0  0  0  0  0  0  0  0  0  0  0
   -1.6363    0.1436    0.2150 C   0  0  0  0  0  0  0  0  0  0  0  0
   -3.0440    2.9407   -0.0782 H   0  0  0  0  0  0  0  0  0  0  0  0
    1.4785   -0.0146   -2.1527 H   0  0  0  0  0  0  0  0  0  0  0  0
   -0.3247    1.2664    1.5142 H   0  0  0  0  0  0  0  0  0  0  0  0
   -2.5080    0.1406    0.8616 H   0  0  0  0  0  0  0  0  0  0  0  0
   -5.0564    2.2745    0.2453 S   0  0  0  0  0  0  0  0  0  0  0  0
   -3.9026    3.3890    0.0237 O   0  0  0  0  0  0  0  0  0  0  0  0
   -6.3119    2.9561    0.0359 O   0  0  0  0  0  0  0  0  0  0  0  0
   -4.6706    1.0541   -0.4370 O   0  0  0  0  0  0  0  0  0  0  0  0
   -4.8898    1.9360    1.8264 O   0  0  0  0  0  0  0  0  0  0  0  0
   -5.3752    2.6074    2.3370 H   0  0  0  0  0  0  0  0  0  0  0  0
  1 11  2  0  0  0  0
  2  1  1  0  0  0  0
  3  2  1  0  0  0  0
  4  5  2  0  0  0  0
  4  1  1  0  0  0  0
  5  6  1  0  0  0  0
  6  7  1  0  0  0  0
  6 10  2  0  0  0  0
  7  9  2  0  0  0  0
  8  7  2  0  0  0  0
 10 14  1  0  0  0  0
 11 10  1  0  0  0  0
 11 15  1  0  0  0  0
 12 17  1  0  0  0  0
 13  5  1  0  0  0  0
 16 20  1  0  0  0  0
 17 16  1  0  0  0  0
 18 16  2  0  0  0  0
 19 16  2  0  0  0  0
 20 21  1  0  0  0  0
M  RAD  3   2   2   3   3   4   2
M  END
