Coordinates from ORCA-job 4-MeOPhN2+~CF3COO-_B3LYPG-6-31G_dp-CH-Scan-d09-49-n800
 OpenBabel11261919493D

 24 23  0  0  0  0  0  0  0  0999 V2000
   -1.6479    0.0677   -0.1438 C   0  0  0  0  0  0  0  0  0  0  0  0
   -3.0244    0.0075   -0.1800 N   0  0  0  0  0  0  0  0  0  0  0  0
   -4.1463    0.0115   -0.1987 N   0  0  0  0  0  0  0  0  0  0  0  0
   -1.1355    1.3593    0.1269 C   0  0  0  0  0  0  0  0  0  0  0  0
    0.2714    1.3222    0.1442 C   0  0  0  0  0  0  0  0  0  0  0  0
    1.0342    0.1647   -0.0761 C   0  0  0  0  0  0  0  0  0  0  0  0
    2.3799    0.3129   -0.0210 O   0  0  0  0  0  0  0  0  0  0  0  0
    3.2246   -0.8121   -0.2310 C   0  0  0  0  0  0  0  0  0  0  0  0
    0.4137   -1.0905   -0.3414 C   0  0  0  0  0  0  0  0  0  0  0  0
   -0.9592   -1.1526   -0.3786 C   0  0  0  0  0  0  0  0  0  0  0  0
   -3.5972    4.1533    0.6732 H   0  0  0  0  0  0  0  0  0  0  0  0
    0.8446    2.2296    0.3387 H   0  0  0  0  0  0  0  0  0  0  0  0
    4.2454   -0.4394   -0.1369 H   0  0  0  0  0  0  0  0  0  0  0  0
    3.0890   -1.2384   -1.2326 H   0  0  0  0  0  0  0  0  0  0  0  0
    3.0547   -1.5912    0.5220 H   0  0  0  0  0  0  0  0  0  0  0  0
    1.0002   -1.9843   -0.5122 H   0  0  0  0  0  0  0  0  0  0  0  0
   -1.4789   -2.0868   -0.5783 H   0  0  0  0  0  0  0  0  0  0  0  0
   -4.3994    4.7008    0.7322 O   0  0  0  0  0  0  0  0  0  0  0  0
   -5.4548    3.9134    0.5130 C   0  0  0  0  0  0  0  0  0  0  0  0
   -5.4381    2.7320    0.2803 O   0  0  0  0  0  0  0  0  0  0  0  0
   -6.7556    4.7402    0.6083 C   0  0  0  0  0  0  0  0  0  0  0  0
   -6.7251    5.7689   -0.2566 F   0  0  0  0  0  0  0  0  0  0  0  0
   -7.8119    3.9743    0.3281 F   0  0  0  0  0  0  0  0  0  0  0  0
   -6.8981    5.2358    1.8507 F   0  0  0  0  0  0  0  0  0  0  0  0
  1  4  2  0  0  0  0
  2  1  1  0  0  0  0
  3  2  1  0  0  0  0
  4  5  1  0  0  0  0
  5 12  1  0  0  0  0
  6  7  1  0  0  0  0
  6  5  2  0  0  0  0
  8 13  1  0  0  0  0
  8  7  1  0  0  0  0
  8 15  1  0  0  0  0
  9  6  1  0  0  0  0
 10  9  2  0  0  0  0
 10  1  1  0  0  0  0
 11 18  1  0  0  0  0
 14  8  1  0  0  0  0
 16  9  1  0  0  0  0
 17 10  1  0  0  0  0
 19 21  1  0  0  0  0
 19 18  1  0  0  0  0
 20 19  2  0  0  0  0
 21 24  1  0  0  0  0
 22 21  1  0  0  0  0
 23 21  1  0  0  0  0
M  RAD  3   2   2   3   3   4   2
M  END
