Coordinates from ORCA-job 4-MeOPhN2+~CF3COO-_B3LYPG-6-31G_dp-CH-Scan-d09-49-n800
 OpenBabel11261919493D

 24 23  0  0  0  0  0  0  0  0999 V2000
   -1.5053    0.1213   -0.2734 C   0  0  0  0  0  0  0  0  0  0  0  0
   -2.8819    0.1363   -0.3543 N   0  0  0  0  0  0  0  0  0  0  0  0
   -4.0005    0.2071   -0.4129 N   0  0  0  0  0  0  0  0  0  0  0  0
   -0.9351    1.3986   -0.0589 C   0  0  0  0  0  0  0  0  0  0  0  0
    0.4672    1.2876    0.0104 C   0  0  0  0  0  0  0  0  0  0  0  0
    1.1720    0.0808   -0.1155 C   0  0  0  0  0  0  0  0  0  0  0  0
    2.5219    0.1606   -0.0204 O   0  0  0  0  0  0  0  0  0  0  0  0
    3.3092   -1.0190   -0.1309 C   0  0  0  0  0  0  0  0  0  0  0  0
    0.4931   -1.1540   -0.3313 C   0  0  0  0  0  0  0  0  0  0  0  0
   -0.8791   -1.1463   -0.4143 C   0  0  0  0  0  0  0  0  0  0  0  0
   -3.8238    4.5865    0.5094 H   0  0  0  0  0  0  0  0  0  0  0  0
    1.0830    2.1734    0.1731 H   0  0  0  0  0  0  0  0  0  0  0  0
    4.3453   -0.6970   -0.0181 H   0  0  0  0  0  0  0  0  0  0  0  0
    3.1863   -1.4973   -1.1105 H   0  0  0  0  0  0  0  0  0  0  0  0
    3.0682   -1.7408    0.6590 H   0  0  0  0  0  0  0  0  0  0  0  0
    1.0365   -2.0852   -0.4305 H   0  0  0  0  0  0  0  0  0  0  0  0
   -1.4424   -2.0617   -0.5794 H   0  0  0  0  0  0  0  0  0  0  0  0
   -4.6820    5.0191    0.6592 O   0  0  0  0  0  0  0  0  0  0  0  0
   -5.6361    4.0916    0.5306 C   0  0  0  0  0  0  0  0  0  0  0  0
   -5.4755    2.9266    0.2744 O   0  0  0  0  0  0  0  0  0  0  0  0
   -7.0227    4.7302    0.7628 C   0  0  0  0  0  0  0  0  0  0  0  0
   -7.2322    5.7248   -0.1171 F   0  0  0  0  0  0  0  0  0  0  0  0
   -7.9829    3.8156    0.6144 F   0  0  0  0  0  0  0  0  0  0  0  0
   -7.0977    5.2397    2.0047 F   0  0  0  0  0  0  0  0  0  0  0  0
  1  4  2  0  0  0  0
  2  1  1  0  0  0  0
  3  2  1  0  0  0  0
  4  5  1  0  0  0  0
  5 12  1  0  0  0  0
  6  7  1  0  0  0  0
  6  5  2  0  0  0  0
  8  7  1  0  0  0  0
  8 13  1  0  0  0  0
  8 15  1  0  0  0  0
  9  6  1  0  0  0  0
 10  9  2  0  0  0  0
 10  1  1  0  0  0  0
 11 18  1  0  0  0  0
 14  8  1  0  0  0  0
 16  9  1  0  0  0  0
 17 10  1  0  0  0  0
 19 18  1  0  0  0  0
 19 21  1  0  0  0  0
 20 19  2  0  0  0  0
 21 24  1  0  0  0  0
 22 21  1  0  0  0  0
 23 21  1  0  0  0  0
M  RAD  3   2   2   3   3   4   2
M  END
