Coordinates from ORCA-job 4-MeOPhN2+~CF3COO-_B3LYPG-6-31G_dp-CH-Scan-d09-49-n800
 OpenBabel11261919493D

 24 23  0  0  0  0  0  0  0  0999 V2000
   -1.4193    0.1543   -0.2585 C   0  0  0  0  0  0  0  0  0  0  0  0
   -2.7955    0.2147   -0.3269 N   0  0  0  0  0  0  0  0  0  0  0  0
   -3.9114    0.3249   -0.3770 N   0  0  0  0  0  0  0  0  0  0  0  0
   -0.8076    1.4144   -0.0582 C   0  0  0  0  0  0  0  0  0  0  0  0
    0.5913    1.2595   -0.0013 C   0  0  0  0  0  0  0  0  0  0  0  0
    1.2561    0.0304   -0.1267 C   0  0  0  0  0  0  0  0  0  0  0  0
    2.6091    0.0681   -0.0469 O   0  0  0  0  0  0  0  0  0  0  0  0
    3.3579   -1.1356   -0.1622 C   0  0  0  0  0  0  0  0  0  0  0  0
    0.5365   -1.1840   -0.3267 C   0  0  0  0  0  0  0  0  0  0  0  0
   -0.8356   -1.1337   -0.3961 C   0  0  0  0  0  0  0  0  0  0  0  0
   -3.9712    4.7990    0.5653 H   0  0  0  0  0  0  0  0  0  0  0  0
    1.2363    2.1264    0.1495 H   0  0  0  0  0  0  0  0  0  0  0  0
    4.4051   -0.8454   -0.0649 H   0  0  0  0  0  0  0  0  0  0  0  0
    3.2071   -1.6144   -1.1379 H   0  0  0  0  0  0  0  0  0  0  0  0
    3.1058   -1.8464    0.6342 H   0  0  0  0  0  0  0  0  0  0  0  0
    1.0494   -2.1326   -0.4241 H   0  0  0  0  0  0  0  0  0  0  0  0
   -1.4292   -2.0320   -0.5483 H   0  0  0  0  0  0  0  0  0  0  0  0
   -4.8583    5.1754    0.6981 O   0  0  0  0  0  0  0  0  0  0  0  0
   -5.7466    4.1868    0.5488 C   0  0  0  0  0  0  0  0  0  0  0  0
   -5.5027    3.0358    0.2961 O   0  0  0  0  0  0  0  0  0  0  0  0
   -7.1768    4.7319    0.7515 C   0  0  0  0  0  0  0  0  0  0  0  0
   -7.4329    5.7118   -0.1322 F   0  0  0  0  0  0  0  0  0  0  0  0
   -8.0708    3.7558    0.5830 F   0  0  0  0  0  0  0  0  0  0  0  0
   -7.3112    5.2333    1.9919 F   0  0  0  0  0  0  0  0  0  0  0  0
  1  4  2  0  0  0  0
  2  1  1  0  0  0  0
  3  2  1  0  0  0  0
  4  5  1  0  0  0  0
  5 12  1  0  0  0  0
  6  7  1  0  0  0  0
  6  5  2  0  0  0  0
  8 13  1  0  0  0  0
  8  7  1  0  0  0  0
  8 15  1  0  0  0  0
  9  6  1  0  0  0  0
 10  9  2  0  0  0  0
 10  1  1  0  0  0  0
 11 18  1  0  0  0  0
 14  8  1  0  0  0  0
 16  9  1  0  0  0  0
 17 10  1  0  0  0  0
 19 18  1  0  0  0  0
 19 21  1  0  0  0  0
 20 19  2  0  0  0  0
 21 24  1  0  0  0  0
 22 21  1  0  0  0  0
 23 21  1  0  0  0  0
M  RAD  3   2   2   3   3   4   2
M  END
