Coordinates from ORCA-job 4-MeOPhN2+~CF3COO-_B3LYPG-6-31G_dp-CH-Scan-d09-49-n800
 OpenBabel11261919493D

 24 23  0  0  0  0  0  0  0  0999 V2000
   -1.5811    0.0878   -0.1402 C   0  0  0  0  0  0  0  0  0  0  0  0
   -2.9592    0.0616   -0.1715 N   0  0  0  0  0  0  0  0  0  0  0  0
   -4.0808    0.0946   -0.1858 N   0  0  0  0  0  0  0  0  0  0  0  0
   -1.0391    1.3672    0.1299 C   0  0  0  0  0  0  0  0  0  0  0  0
    0.3672    1.2954    0.1426 C   0  0  0  0  0  0  0  0  0  0  0  0
    1.1015    0.1205   -0.0813 C   0  0  0  0  0  0  0  0  0  0  0  0
    2.4509    0.2365   -0.0312 O   0  0  0  0  0  0  0  0  0  0  0  0
    3.2674   -0.9078   -0.2473 C   0  0  0  0  0  0  0  0  0  0  0  0
    0.4505   -1.1197   -0.3455 C   0  0  0  0  0  0  0  0  0  0  0  0
   -0.9235   -1.1491   -0.3782 C   0  0  0  0  0  0  0  0  0  0  0  0
   -3.6991    4.3722    0.7035 H   0  0  0  0  0  0  0  0  0  0  0  0
    0.9629    2.1886    0.3361 H   0  0  0  0  0  0  0  0  0  0  0  0
    4.2974   -0.5597   -0.1583 H   0  0  0  0  0  0  0  0  0  0  0  0
    3.1164   -1.3294   -1.2487 H   0  0  0  0  0  0  0  0  0  0  0  0
    3.0833   -1.6840    0.5055 H   0  0  0  0  0  0  0  0  0  0  0  0
    1.0152   -2.0270   -0.5188 H   0  0  0  0  0  0  0  0  0  0  0  0
   -1.4662   -2.0704   -0.5764 H   0  0  0  0  0  0  0  0  0  0  0  0
   -4.5369    4.8640    0.7563 O   0  0  0  0  0  0  0  0  0  0  0  0
   -5.5333    4.0048    0.5249 C   0  0  0  0  0  0  0  0  0  0  0  0
   -5.4299    2.8283    0.2915 O   0  0  0  0  0  0  0  0  0  0  0  0
   -6.8899    4.7377    0.6088 C   0  0  0  0  0  0  0  0  0  0  0  0
   -6.9223    5.7709   -0.2504 F   0  0  0  0  0  0  0  0  0  0  0  0
   -7.8858    3.9007    0.3127 F   0  0  0  0  0  0  0  0  0  0  0  0
   -7.0804    5.2146    1.8521 F   0  0  0  0  0  0  0  0  0  0  0  0
  1  4  2  0  0  0  0
  2  1  1  0  0  0  0
  3  2  1  0  0  0  0
  4  5  1  0  0  0  0
  5 12  1  0  0  0  0
  6  7  1  0  0  0  0
  6  5  2  0  0  0  0
  8 13  1  0  0  0  0
  8  7  1  0  0  0  0
  8 15  1  0  0  0  0
  9  6  1  0  0  0  0
 10  9  2  0  0  0  0
 10  1  1  0  0  0  0
 11 18  1  0  0  0  0
 14  8  1  0  0  0  0
 16  9  1  0  0  0  0
 17 10  1  0  0  0  0
 19 21  1  0  0  0  0
 19 18  1  0  0  0  0
 20 19  2  0  0  0  0
 21 24  1  0  0  0  0
 22 21  1  0  0  0  0
 23 21  1  0  0  0  0
M  RAD  3   2   2   3   3   4   2
M  END
