Coordinates from ORCA-job 4-MeOPhN2+~CF3COO-_B3LYPG-6-31G_dp-CH-Scan-d09-49-n800
 OpenBabel11261919493D

 24 23  0  0  0  0  0  0  0  0999 V2000
   -1.9791    0.0406   -0.2033 C   0  0  0  0  0  0  0  0  0  0  0  0
   -3.3374   -0.1612   -0.2859 N   0  0  0  0  0  0  0  0  0  0  0  0
   -4.4497   -0.2830   -0.3441 N   0  0  0  0  0  0  0  0  0  0  0  0
   -1.5825    1.3701    0.0808 C   0  0  0  0  0  0  0  0  0  0  0  0
   -0.1858    1.4735    0.1487 C   0  0  0  0  0  0  0  0  0  0  0  0
    0.6900    0.3909   -0.0406 C   0  0  0  0  0  0  0  0  0  0  0  0
    2.0089    0.6662    0.0643 O   0  0  0  0  0  0  0  0  0  0  0  0
    2.9657   -0.3752   -0.1029 C   0  0  0  0  0  0  0  0  0  0  0  0
    0.1966   -0.9132   -0.3249 C   0  0  0  0  0  0  0  0  0  0  0  0
   -1.1630   -1.1021   -0.4098 C   0  0  0  0  0  0  0  0  0  0  0  0
   -3.1425    3.1882    0.4007 H   0  0  0  0  0  0  0  0  0  0  0  0
    0.2873    2.4313    0.3615 H   0  0  0  0  0  0  0  0  0  0  0  0
    3.9405    0.0930    0.0368 H   0  0  0  0  0  0  0  0  0  0  0  0
    2.9158   -0.8101   -1.1082 H   0  0  0  0  0  0  0  0  0  0  0  0
    2.8343   -1.1660    0.6452 H   0  0  0  0  0  0  0  0  0  0  0  0
    0.8672   -1.7498   -0.4737 H   0  0  0  0  0  0  0  0  0  0  0  0
   -1.5846   -2.0803   -0.6257 H   0  0  0  0  0  0  0  0  0  0  0  0
   -3.7815    3.9320    0.5313 O   0  0  0  0  0  0  0  0  0  0  0  0
   -5.0173    3.4696    0.4546 C   0  0  0  0  0  0  0  0  0  0  0  0
   -5.3721    2.3301    0.2576 O   0  0  0  0  0  0  0  0  0  0  0  0
   -6.0284    4.6222    0.6489 C   0  0  0  0  0  0  0  0  0  0  0  0
   -5.8893    5.5359   -0.3305 F   0  0  0  0  0  0  0  0  0  0  0  0
   -7.2812    4.1578    0.6210 F   0  0  0  0  0  0  0  0  0  0  0  0
   -5.8264    5.2378    1.8285 F   0  0  0  0  0  0  0  0  0  0  0  0
  1  4  2  0  0  0  0
  2  1  1  0  0  0  0
  3  2  1  0  0  0  0
  4  5  1  0  0  0  0
  5 12  1  0  0  0  0
  6  7  1  0  0  0  0
  6  5  2  0  0  0  0
  8 13  1  0  0  0  0
  8  7  1  0  0  0  0
  8 15  1  0  0  0  0
  9  6  1  0  0  0  0
 10  9  2  0  0  0  0
 10  1  1  0  0  0  0
 11 18  1  0  0  0  0
 14  8  1  0  0  0  0
 16  9  1  0  0  0  0
 17 10  1  0  0  0  0
 19 18  1  0  0  0  0
 19 21  1  0  0  0  0
 20 19  2  0  0  0  0
 21 24  1  0  0  0  0
 22 21  1  0  0  0  0
 23 21  1  0  0  0  0
M  RAD  3   2   2   3   3   4   2
M  END
