Coordinates from ORCA-job 4-MeOPhN2+~CF3COO-_B3LYPG-6-31G_dp-CH-Scan-d09-49-n800
 OpenBabel11261919493D

 24 23  0  0  0  0  0  0  0  0999 V2000
   -1.7258    0.0570   -0.1544 C   0  0  0  0  0  0  0  0  0  0  0  0
   -3.0996   -0.0383   -0.2014 N   0  0  0  0  0  0  0  0  0  0  0  0
   -4.2207   -0.0684   -0.2234 N   0  0  0  0  0  0  0  0  0  0  0  0
   -1.2426    1.3591    0.1202 C   0  0  0  0  0  0  0  0  0  0  0  0
    0.1636    1.3565    0.1477 C   0  0  0  0  0  0  0  0  0  0  0  0
    0.9549    0.2169   -0.0672 C   0  0  0  0  0  0  0  0  0  0  0  0
    2.2956    0.3968   -0.0018 O   0  0  0  0  0  0  0  0  0  0  0  0
    3.1686   -0.7082   -0.2042 C   0  0  0  0  0  0  0  0  0  0  0  0
    0.3654   -1.0517   -0.3374 C   0  0  0  0  0  0  0  0  0  0  0  0
   -1.0054   -1.1457   -0.3845 C   0  0  0  0  0  0  0  0  0  0  0  0
   -3.4807    3.9238    0.6047 H   0  0  0  0  0  0  0  0  0  0  0  0
    0.7132    2.2772    0.3464 H   0  0  0  0  0  0  0  0  0  0  0  0
    4.1793   -0.3116   -0.1005 H   0  0  0  0  0  0  0  0  0  0  0  0
    3.0521   -1.1369   -1.2071 H   0  0  0  0  0  0  0  0  0  0  0  0
    3.0098   -1.4912    0.5472 H   0  0  0  0  0  0  0  0  0  0  0  0
    0.9734   -1.9317   -0.5044 H   0  0  0  0  0  0  0  0  0  0  0  0
   -1.5014   -2.0916   -0.5885 H   0  0  0  0  0  0  0  0  0  0  0  0
   -4.2448    4.5226    0.6808 O   0  0  0  0  0  0  0  0  0  0  0  0
   -5.3550    3.8081    0.4960 C   0  0  0  0  0  0  0  0  0  0  0  0
   -5.4280    2.6264    0.2718 O   0  0  0  0  0  0  0  0  0  0  0  0
   -6.5935    4.7226    0.6177 C   0  0  0  0  0  0  0  0  0  0  0  0
   -6.5190    5.7361   -0.2627 F   0  0  0  0  0  0  0  0  0  0  0  0
   -7.7082    4.0282    0.3790 F   0  0  0  0  0  0  0  0  0  0  0  0
   -6.6658    5.2426    1.8562 F   0  0  0  0  0  0  0  0  0  0  0  0
  1  4  2  0  0  0  0
  2  1  1  0  0  0  0
  3  2  1  0  0  0  0
  4  5  1  0  0  0  0
  5 12  1  0  0  0  0
  6  7  1  0  0  0  0
  6  5  2  0  0  0  0
  8 13  1  0  0  0  0
  8  7  1  0  0  0  0
  8 15  1  0  0  0  0
  9  6  1  0  0  0  0
 10  9  2  0  0  0  0
 10  1  1  0  0  0  0
 11 18  1  0  0  0  0
 14  8  1  0  0  0  0
 16  9  1  0  0  0  0
 17 10  1  0  0  0  0
 19 21  1  0  0  0  0
 19 18  1  0  0  0  0
 20 19  2  0  0  0  0
 21 24  1  0  0  0  0
 22 21  1  0  0  0  0
 23 21  1  0  0  0  0
M  RAD  3   2   2   3   3   4   2
M  END
