Coordinates from ORCA-job 4-MeOPhN2+~CF3COO-_B3LYPG-6-31G_dp-CH-Scan-d09-49-n800
 OpenBabel11261919493D

 24 23  0  0  0  0  0  0  0  0999 V2000
   -1.4587    0.1365   -0.2647 C   0  0  0  0  0  0  0  0  0  0  0  0
   -2.8353    0.1753   -0.3389 N   0  0  0  0  0  0  0  0  0  0  0  0
   -3.9528    0.2661   -0.3904 N   0  0  0  0  0  0  0  0  0  0  0  0
   -0.8671    1.4050   -0.0568 C   0  0  0  0  0  0  0  0  0  0  0  0
    0.5337    1.2714    0.0056 C   0  0  0  0  0  0  0  0  0  0  0  0
    1.2180    0.0530   -0.1212 C   0  0  0  0  0  0  0  0  0  0  0  0
    2.5697    0.1111   -0.0345 O   0  0  0  0  0  0  0  0  0  0  0  0
    3.3373   -1.0809   -0.1488 C   0  0  0  0  0  0  0  0  0  0  0  0
    0.5179   -1.1713   -0.3295 C   0  0  0  0  0  0  0  0  0  0  0  0
   -0.8544   -1.1417   -0.4050 C   0  0  0  0  0  0  0  0  0  0  0  0
   -3.9034    4.6991    0.5394 H   0  0  0  0  0  0  0  0  0  0  0  0
    1.1647    2.1475    0.1626 H   0  0  0  0  0  0  0  0  0  0  0  0
    4.3793   -0.7753   -0.0443 H   0  0  0  0  0  0  0  0  0  0  0  0
    3.1995   -1.5590   -1.1267 H   0  0  0  0  0  0  0  0  0  0  0  0
    3.0909   -1.7976    0.6441 H   0  0  0  0  0  0  0  0  0  0  0  0
    1.0457   -2.1116   -0.4286 H   0  0  0  0  0  0  0  0  0  0  0  0
   -1.4335   -2.0484   -0.5638 H   0  0  0  0  0  0  0  0  0  0  0  0
   -4.7770    5.1034    0.6796 O   0  0  0  0  0  0  0  0  0  0  0  0
   -5.6979    4.1439    0.5404 C   0  0  0  0  0  0  0  0  0  0  0  0
   -5.4941    2.9851    0.2871 O   0  0  0  0  0  0  0  0  0  0  0  0
   -7.1078    4.7350    0.7562 C   0  0  0  0  0  0  0  0  0  0  0  0
   -7.3398    5.7236   -0.1247 F   0  0  0  0  0  0  0  0  0  0  0  0
   -8.0346    3.7888    0.5950 F   0  0  0  0  0  0  0  0  0  0  0  0
   -7.2148    5.2394    1.9980 F   0  0  0  0  0  0  0  0  0  0  0  0
  1  4  2  0  0  0  0
  2  1  1  0  0  0  0
  3  2  1  0  0  0  0
  4  5  1  0  0  0  0
  5 12  1  0  0  0  0
  6  7  1  0  0  0  0
  6  5  2  0  0  0  0
  8 13  1  0  0  0  0
  8  7  1  0  0  0  0
  8 15  1  0  0  0  0
  9  6  1  0  0  0  0
 10  9  2  0  0  0  0
 10  1  1  0  0  0  0
 11 18  1  0  0  0  0
 14  8  1  0  0  0  0
 16  9  1  0  0  0  0
 17 10  1  0  0  0  0
 19 18  1  0  0  0  0
 19 21  1  0  0  0  0
 20 19  2  0  0  0  0
 21 24  1  0  0  0  0
 22 21  1  0  0  0  0
 23 21  1  0  0  0  0
M  RAD  3   2   2   3   3   4   2
M  END
