Coordinates from ORCA-job 4-MeOPhN2+~CF3COO-_B3LYPG-6-31G_dp-CH-Scan-d09-49-n800
 OpenBabel11261919493D

 24 23  0  0  0  0  0  0  0  0999 V2000
   -1.7791    0.0532   -0.1589 C   0  0  0  0  0  0  0  0  0  0  0  0
   -3.1505   -0.0648   -0.2111 N   0  0  0  0  0  0  0  0  0  0  0  0
   -4.2703   -0.1149   -0.2450 N   0  0  0  0  0  0  0  0  0  0  0  0
   -1.3136    1.3618    0.1159 C   0  0  0  0  0  0  0  0  0  0  0  0
    0.0916    1.3813    0.1491 C   0  0  0  0  0  0  0  0  0  0  0  0
    0.9005    0.2530   -0.0616 C   0  0  0  0  0  0  0  0  0  0  0  0
    2.2376    0.4530    0.0087 O   0  0  0  0  0  0  0  0  0  0  0  0
    3.1279   -0.6393   -0.1885 C   0  0  0  0  0  0  0  0  0  0  0  0
    0.3303   -1.0240   -0.3325 C   0  0  0  0  0  0  0  0  0  0  0  0
   -1.0389   -1.1380   -0.3846 C   0  0  0  0  0  0  0  0  0  0  0  0
   -3.4029    3.7744    0.5647 H   0  0  0  0  0  0  0  0  0  0  0  0
    0.6261    2.3102    0.3492 H   0  0  0  0  0  0  0  0  0  0  0  0
    4.1320   -0.2275   -0.0802 H   0  0  0  0  0  0  0  0  0  0  0  0
    3.0226   -1.0702   -1.1916 H   0  0  0  0  0  0  0  0  0  0  0  0
    2.9770   -1.4237    0.5629 H   0  0  0  0  0  0  0  0  0  0  0  0
    0.9515   -1.8954   -0.4961 H   0  0  0  0  0  0  0  0  0  0  0  0
   -1.5199   -2.0914   -0.5892 H   0  0  0  0  0  0  0  0  0  0  0  0
   -4.1424    4.4037    0.6519 O   0  0  0  0  0  0  0  0  0  0  0  0
   -5.2832    3.7374    0.4856 C   0  0  0  0  0  0  0  0  0  0  0  0
   -5.4126    2.5590    0.2664 O   0  0  0  0  0  0  0  0  0  0  0  0
   -6.4804    4.7037    0.6211 C   0  0  0  0  0  0  0  0  0  0  0  0
   -6.3768    5.7098   -0.2650 F   0  0  0  0  0  0  0  0  0  0  0  0
   -7.6269    4.0557    0.4013 F   0  0  0  0  0  0  0  0  0  0  0  0
   -6.5140    5.2316    1.8579 F   0  0  0  0  0  0  0  0  0  0  0  0
  1  4  2  0  0  0  0
  2  1  1  0  0  0  0
  3  2  1  0  0  0  0
  4  5  1  0  0  0  0
  5 12  1  0  0  0  0
  6  7  1  0  0  0  0
  6  5  2  0  0  0  0
  8 13  1  0  0  0  0
  8  7  1  0  0  0  0
  8 15  1  0  0  0  0
  9  6  1  0  0  0  0
 10  9  2  0  0  0  0
 10  1  1  0  0  0  0
 11 18  1  0  0  0  0
 14  8  1  0  0  0  0
 16  9  1  0  0  0  0
 17 10  1  0  0  0  0
 19 21  1  0  0  0  0
 19 18  1  0  0  0  0
 20 19  2  0  0  0  0
 21 24  1  0  0  0  0
 22 21  1  0  0  0  0
 23 21  1  0  0  0  0
M  RAD  3   2   2   3   3   4   2
M  END
