Coordinates from ORCA-job 4-MeOPhN2+~CF3COO-_B3LYPG-6-31G_dp-CH-Scan-d09-49-n800
 OpenBabel11261919493D

 24 23  0  0  0  0  0  0  0  0999 V2000
   -1.7914    0.0521   -0.1608 C   0  0  0  0  0  0  0  0  0  0  0  0
   -3.1621   -0.0711   -0.2149 N   0  0  0  0  0  0  0  0  0  0  0  0
   -4.2816   -0.1258   -0.2498 N   0  0  0  0  0  0  0  0  0  0  0  0
   -1.3301    1.3622    0.1142 C   0  0  0  0  0  0  0  0  0  0  0  0
    0.0747    1.3869    0.1491 C   0  0  0  0  0  0  0  0  0  0  0  0
    0.8878    0.2613   -0.0603 C   0  0  0  0  0  0  0  0  0  0  0  0
    2.2240    0.4661    0.0116 O   0  0  0  0  0  0  0  0  0  0  0  0
    3.1185   -0.6232   -0.1842 C   0  0  0  0  0  0  0  0  0  0  0  0
    0.3223   -1.0176   -0.3315 C   0  0  0  0  0  0  0  0  0  0  0  0
   -1.0464   -1.1363   -0.3851 C   0  0  0  0  0  0  0  0  0  0  0  0
   -3.3856    3.7390    0.5538 H   0  0  0  0  0  0  0  0  0  0  0  0
    0.6056    2.3178    0.3496 H   0  0  0  0  0  0  0  0  0  0  0  0
    4.1209   -0.2078   -0.0745 H   0  0  0  0  0  0  0  0  0  0  0  0
    3.0160   -1.0546   -1.1873 H   0  0  0  0  0  0  0  0  0  0  0  0
    2.9692   -1.4079    0.5673 H   0  0  0  0  0  0  0  0  0  0  0  0
    0.9466   -1.8869   -0.4941 H   0  0  0  0  0  0  0  0  0  0  0  0
   -1.5238   -2.0914   -0.5900 H   0  0  0  0  0  0  0  0  0  0  0  0
   -4.1191    4.3756    0.6436 O   0  0  0  0  0  0  0  0  0  0  0  0
   -5.2670    3.7210    0.4833 C   0  0  0  0  0  0  0  0  0  0  0  0
   -5.4101    2.5438    0.2660 O   0  0  0  0  0  0  0  0  0  0  0  0
   -6.4539    4.6996    0.6226 C   0  0  0  0  0  0  0  0  0  0  0  0
   -6.3443    5.7033   -0.2656 F   0  0  0  0  0  0  0  0  0  0  0  0
   -7.6079    4.0628    0.4088 F   0  0  0  0  0  0  0  0  0  0  0  0
   -6.4769    5.2298    1.8587 F   0  0  0  0  0  0  0  0  0  0  0  0
  1  4  2  0  0  0  0
  2  1  1  0  0  0  0
  3  2  1  0  0  0  0
  4  5  1  0  0  0  0
  5 12  1  0  0  0  0
  6  7  1  0  0  0  0
  6  5  2  0  0  0  0
  8 13  1  0  0  0  0
  8  7  1  0  0  0  0
  8 15  1  0  0  0  0
  9  6  1  0  0  0  0
 10  9  2  0  0  0  0
 10  1  1  0  0  0  0
 11 18  1  0  0  0  0
 14  8  1  0  0  0  0
 16  9  1  0  0  0  0
 17 10  1  0  0  0  0
 19 21  1  0  0  0  0
 19 18  1  0  0  0  0
 20 19  2  0  0  0  0
 21 24  1  0  0  0  0
 22 21  1  0  0  0  0
 23 21  1  0  0  0  0
M  RAD  3   2   2   3   3   4   2
M  END
