Coordinates from ORCA-job 4-MeOPhN2+~CF3COO-_B3LYPG-6-31G_dp-CH-Scan-d09-49-n800
 OpenBabel11261919493D

 24 23  0  0  0  0  0  0  0  0999 V2000
   -1.8400    0.0484   -0.1714 C   0  0  0  0  0  0  0  0  0  0  0  0
   -3.2078   -0.0953   -0.2332 N   0  0  0  0  0  0  0  0  0  0  0  0
   -4.3259   -0.1677   -0.2752 N   0  0  0  0  0  0  0  0  0  0  0  0
   -1.3956    1.3644    0.1040 C   0  0  0  0  0  0  0  0  0  0  0  0
    0.0076    1.4099    0.1473 C   0  0  0  0  0  0  0  0  0  0  0  0
    0.8373    0.2949   -0.0556 C   0  0  0  0  0  0  0  0  0  0  0  0
    2.1695    0.5184    0.0241 O   0  0  0  0  0  0  0  0  0  0  0  0
    3.0805   -0.5589   -0.1636 C   0  0  0  0  0  0  0  0  0  0  0  0
    0.2906   -0.9915   -0.3281 C   0  0  0  0  0  0  0  0  0  0  0  0
   -1.0761   -1.1289   -0.3895 C   0  0  0  0  0  0  0  0  0  0  0  0
   -3.3206    3.5935    0.5062 H   0  0  0  0  0  0  0  0  0  0  0  0
    0.5236    2.3484    0.3495 H   0  0  0  0  0  0  0  0  0  0  0  0
    4.0762   -0.1294   -0.0471 H   0  0  0  0  0  0  0  0  0  0  0  0
    2.9912   -0.9928   -1.1668 H   0  0  0  0  0  0  0  0  0  0  0  0
    2.9364   -1.3443    0.5880 H   0  0  0  0  0  0  0  0  0  0  0  0
    0.9273   -1.8527   -0.4858 H   0  0  0  0  0  0  0  0  0  0  0  0
   -1.5391   -2.0907   -0.5957 H   0  0  0  0  0  0  0  0  0  0  0  0
   -4.0283    4.2599    0.6066 O   0  0  0  0  0  0  0  0  0  0  0  0
   -5.2042    3.6544    0.4753 C   0  0  0  0  0  0  0  0  0  0  0  0
   -5.4048    2.4827    0.2695 O   0  0  0  0  0  0  0  0  0  0  0  0
   -6.3461    4.6830    0.6310 C   0  0  0  0  0  0  0  0  0  0  0  0
   -6.2174    5.6710   -0.2726 F   0  0  0  0  0  0  0  0  0  0  0  0
   -7.5309    4.0927    0.4531 F   0  0  0  0  0  0  0  0  0  0  0  0
   -6.3178    5.2290    1.8603 F   0  0  0  0  0  0  0  0  0  0  0  0
  1  4  2  0  0  0  0
  2  1  1  0  0  0  0
  3  2  1  0  0  0  0
  4  5  1  0  0  0  0
  5 12  1  0  0  0  0
  6  7  1  0  0  0  0
  6  5  2  0  0  0  0
  8 13  1  0  0  0  0
  8  7  1  0  0  0  0
  8 15  1  0  0  0  0
  9  6  1  0  0  0  0
 10  9  2  0  0  0  0
 10  1  1  0  0  0  0
 11 18  1  0  0  0  0
 14  8  1  0  0  0  0
 16  9  1  0  0  0  0
 17 10  1  0  0  0  0
 19 18  1  0  0  0  0
 19 21  1  0  0  0  0
 20 19  2  0  0  0  0
 21 24  1  0  0  0  0
 22 21  1  0  0  0  0
 23 21  1  0  0  0  0
M  RAD  3   2   2   3   3   4   2
M  END
