Coordinates from ORCA-job 4-MeOPhN2+~CF3COO-_B3LYPG-6-31G_dp-CH-Scan-d09-49-n800
 OpenBabel11261919493D

 24 23  0  0  0  0  0  0  0  0999 V2000
   -1.4794    0.1287   -0.2694 C   0  0  0  0  0  0  0  0  0  0  0  0
   -2.8560    0.1569   -0.3466 N   0  0  0  0  0  0  0  0  0  0  0  0
   -3.9739    0.2395   -0.4019 N   0  0  0  0  0  0  0  0  0  0  0  0
   -0.8976    1.4016   -0.0597 C   0  0  0  0  0  0  0  0  0  0  0  0
    0.5039    1.2784    0.0060 C   0  0  0  0  0  0  0  0  0  0  0  0
    1.1976    0.0652   -0.1193 C   0  0  0  0  0  0  0  0  0  0  0  0
    2.5486    0.1334   -0.0289 O   0  0  0  0  0  0  0  0  0  0  0  0
    3.3253   -1.0530   -0.1404 C   0  0  0  0  0  0  0  0  0  0  0  0
    0.5073   -1.1642   -0.3299 C   0  0  0  0  0  0  0  0  0  0  0  0
   -0.8650   -1.1448   -0.4088 C   0  0  0  0  0  0  0  0  0  0  0  0
   -3.8681    4.6480    0.5286 H   0  0  0  0  0  0  0  0  0  0  0  0
    1.1279    2.1592    0.1647 H   0  0  0  0  0  0  0  0  0  0  0  0
    4.3646   -0.7397   -0.0325 H   0  0  0  0  0  0  0  0  0  0  0  0
    3.1942   -1.5322   -1.1186 H   0  0  0  0  0  0  0  0  0  0  0  0
    3.0815   -1.7713    0.6518 H   0  0  0  0  0  0  0  0  0  0  0  0
    1.0424   -2.1004   -0.4281 H   0  0  0  0  0  0  0  0  0  0  0  0
   -1.4369   -2.0557   -0.5696 H   0  0  0  0  0  0  0  0  0  0  0  0
   -4.7346    5.0657    0.6729 O   0  0  0  0  0  0  0  0  0  0  0  0
   -5.6710    4.1210    0.5367 C   0  0  0  0  0  0  0  0  0  0  0  0
   -5.4867    2.9595    0.2813 O   0  0  0  0  0  0  0  0  0  0  0  0
   -7.0706    4.7341    0.7592 C   0  0  0  0  0  0  0  0  0  0  0  0
   -7.2911    5.7265   -0.1204 F   0  0  0  0  0  0  0  0  0  0  0  0
   -8.0129    3.8025    0.6017 F   0  0  0  0  0  0  0  0  0  0  0  0
   -7.1643    5.2396    2.0015 F   0  0  0  0  0  0  0  0  0  0  0  0
  1  4  2  0  0  0  0
  2  1  1  0  0  0  0
  3  2  1  0  0  0  0
  4  5  1  0  0  0  0
  5 12  1  0  0  0  0
  6  7  1  0  0  0  0
  6  5  2  0  0  0  0
  8 13  1  0  0  0  0
  8  7  1  0  0  0  0
  8 15  1  0  0  0  0
  9  6  1  0  0  0  0
 10  9  2  0  0  0  0
 10  1  1  0  0  0  0
 11 18  1  0  0  0  0
 14  8  1  0  0  0  0
 16  9  1  0  0  0  0
 17 10  1  0  0  0  0
 19 18  1  0  0  0  0
 19 21  1  0  0  0  0
 20 19  2  0  0  0  0
 21 24  1  0  0  0  0
 22 21  1  0  0  0  0
 23 21  1  0  0  0  0
M  RAD  3   2   2   3   3   4   2
M  END
