Coordinates from ORCA-job 4-MeOPhN2+~CF3COO-_B3LYPG-6-31G_dp-CH-Scan-d09-49-n800
 OpenBabel11261919493D

 24 23  0  0  0  0  0  0  0  0999 V2000
   -1.5273    0.1158   -0.2763 C   0  0  0  0  0  0  0  0  0  0  0  0
   -2.9036    0.1205   -0.3604 N   0  0  0  0  0  0  0  0  0  0  0  0
   -4.0227    0.1817   -0.4202 N   0  0  0  0  0  0  0  0  0  0  0  0
   -0.9666    1.3965   -0.0562 C   0  0  0  0  0  0  0  0  0  0  0  0
    0.4363    1.2954    0.0164 C   0  0  0  0  0  0  0  0  0  0  0  0
    1.1501    0.0940   -0.1114 C   0  0  0  0  0  0  0  0  0  0  0  0
    2.4991    0.1831   -0.0122 O   0  0  0  0  0  0  0  0  0  0  0  0
    3.2950   -0.9905   -0.1232 C   0  0  0  0  0  0  0  0  0  0  0  0
    0.4807   -1.1448   -0.3332 C   0  0  0  0  0  0  0  0  0  0  0  0
   -0.8913   -1.1466   -0.4198 C   0  0  0  0  0  0  0  0  0  0  0  0
   -3.7868    4.5343    0.4905 H   0  0  0  0  0  0  0  0  0  0  0  0
    1.0452    2.1850    0.1834 H   0  0  0  0  0  0  0  0  0  0  0  0
    4.3285   -0.6616   -0.0058 H   0  0  0  0  0  0  0  0  0  0  0  0
    3.1789   -1.4669   -1.1047 H   0  0  0  0  0  0  0  0  0  0  0  0
    3.0563   -1.7162    0.6637 H   0  0  0  0  0  0  0  0  0  0  0  0
    1.0310   -2.0718   -0.4341 H   0  0  0  0  0  0  0  0  0  0  0  0
   -1.4476   -2.0656   -0.5895 H   0  0  0  0  0  0  0  0  0  0  0  0
   -4.6377    4.9795    0.6455 O   0  0  0  0  0  0  0  0  0  0  0  0
   -5.6062    4.0664    0.5248 C   0  0  0  0  0  0  0  0  0  0  0  0
   -5.4653    2.8987    0.2689 O   0  0  0  0  0  0  0  0  0  0  0  0
   -6.9815    4.7259    0.7657 C   0  0  0  0  0  0  0  0  0  0  0  0
   -7.1836    5.7202   -0.1163 F   0  0  0  0  0  0  0  0  0  0  0  0
   -7.9561    3.8248    0.6283 F   0  0  0  0  0  0  0  0  0  0  0  0
   -7.0394    5.2410    2.0062 F   0  0  0  0  0  0  0  0  0  0  0  0
  1  4  2  0  0  0  0
  2  1  1  0  0  0  0
  3  2  1  0  0  0  0
  4  5  1  0  0  0  0
  5 12  1  0  0  0  0
  6  7  1  0  0  0  0
  6  5  2  0  0  0  0
  8  7  1  0  0  0  0
  8 13  1  0  0  0  0
  8 15  1  0  0  0  0
  9  6  1  0  0  0  0
 10  9  2  0  0  0  0
 10  1  1  0  0  0  0
 11 18  1  0  0  0  0
 14  8  1  0  0  0  0
 16  9  1  0  0  0  0
 17 10  1  0  0  0  0
 19 18  1  0  0  0  0
 19 21  1  0  0  0  0
 20 19  2  0  0  0  0
 21 24  1  0  0  0  0
 22 21  1  0  0  0  0
 23 21  1  0  0  0  0
M  RAD  3   2   2   3   3   4   2
M  END
