Coordinates from ORCA-job 4-MeOPhN2+~CF3COO-_B3LYPG-6-31G_dp-CH-Scan-d09-49-n800
 OpenBabel11261919493D

 24 23  0  0  0  0  0  0  0  0999 V2000
   -1.6375    0.0703   -0.1402 C   0  0  0  0  0  0  0  0  0  0  0  0
   -3.0145    0.0152   -0.1735 N   0  0  0  0  0  0  0  0  0  0  0  0
   -4.1362    0.0248   -0.1977 N   0  0  0  0  0  0  0  0  0  0  0  0
   -1.1205    1.3604    0.1287 C   0  0  0  0  0  0  0  0  0  0  0  0
    0.2864    1.3182    0.1436 C   0  0  0  0  0  0  0  0  0  0  0  0
    1.0448    0.1579   -0.0776 C   0  0  0  0  0  0  0  0  0  0  0  0
    2.3911    0.3015   -0.0252 O   0  0  0  0  0  0  0  0  0  0  0  0
    3.2314   -0.8265   -0.2365 C   0  0  0  0  0  0  0  0  0  0  0  0
    0.4194   -1.0953   -0.3409 C   0  0  0  0  0  0  0  0  0  0  0  0
   -0.9537   -1.1527   -0.3755 C   0  0  0  0  0  0  0  0  0  0  0  0
   -3.6130    4.1854    0.6876 H   0  0  0  0  0  0  0  0  0  0  0  0
    0.8632    2.2236    0.3369 H   0  0  0  0  0  0  0  0  0  0  0  0
    4.2538   -0.4574   -0.1449 H   0  0  0  0  0  0  0  0  0  0  0  0
    3.0921   -1.2528   -1.2376 H   0  0  0  0  0  0  0  0  0  0  0  0
    3.0605   -1.6048    0.5172 H   0  0  0  0  0  0  0  0  0  0  0  0
    1.0025   -1.9912   -0.5122 H   0  0  0  0  0  0  0  0  0  0  0  0
   -1.4771   -2.0851   -0.5735 H   0  0  0  0  0  0  0  0  0  0  0  0
   -4.4208    4.7249    0.7440 O   0  0  0  0  0  0  0  0  0  0  0  0
   -5.4669    3.9273    0.5160 C   0  0  0  0  0  0  0  0  0  0  0  0
   -5.4366    2.7467    0.2807 O   0  0  0  0  0  0  0  0  0  0  0  0
   -6.7766    4.7406    0.6048 C   0  0  0  0  0  0  0  0  0  0  0  0
   -6.7504    5.7729   -0.2560 F   0  0  0  0  0  0  0  0  0  0  0  0
   -7.8229    3.9650    0.3141 F   0  0  0  0  0  0  0  0  0  0  0  0
   -6.9331    5.2299    1.8480 F   0  0  0  0  0  0  0  0  0  0  0  0
  1  4  2  0  0  0  0
  2  1  1  0  0  0  0
  3  2  1  0  0  0  0
  4  5  1  0  0  0  0
  5 12  1  0  0  0  0
  6  7  1  0  0  0  0
  6  5  2  0  0  0  0
  8 13  1  0  0  0  0
  8  7  1  0  0  0  0
  8 15  1  0  0  0  0
  9  6  1  0  0  0  0
 10  9  2  0  0  0  0
 10  1  1  0  0  0  0
 11 18  1  0  0  0  0
 14  8  1  0  0  0  0
 16  9  1  0  0  0  0
 17 10  1  0  0  0  0
 19 21  1  0  0  0  0
 19 18  1  0  0  0  0
 20 19  2  0  0  0  0
 21 24  1  0  0  0  0
 22 21  1  0  0  0  0
 23 21  1  0  0  0  0
M  RAD  3   2   2   3   3   4   2
M  END
