Coordinates from ORCA-job 4-MeOPhN2+~CF3COO-_B3LYPG-6-31G_dp-CH-Scan-d09-49-n800
 OpenBabel11261919493D

 24 23  0  0  0  0  0  0  0  0999 V2000
   -2.1668    0.0864   -0.2198 C   0  0  0  0  0  0  0  0  0  0  0  0
   -3.5256   -0.1303   -0.3127 N   0  0  0  0  0  0  0  0  0  0  0  0
   -4.6476   -0.0755   -0.3330 N   0  0  0  0  0  0  0  0  0  0  0  0
   -1.7659    1.4119    0.0428 C   0  0  0  0  0  0  0  0  0  0  0  0
   -0.3947    1.5970    0.1358 C   0  0  0  0  0  0  0  0  0  0  0  0
    0.5151    0.5317   -0.0222 C   0  0  0  0  0  0  0  0  0  0  0  0
    1.8159    0.8530    0.0955 O   0  0  0  0  0  0  0  0  0  0  0  0
    2.8117   -0.1596   -0.0426 C   0  0  0  0  0  0  0  0  0  0  0  0
    0.0553   -0.7821   -0.2876 C   0  0  0  0  0  0  0  0  0  0  0  0
   -1.3020   -1.0127   -0.3892 C   0  0  0  0  0  0  0  0  0  0  0  0
   -2.6841    2.4188    0.1895 H   0  0  0  0  0  0  0  0  0  0  0  0
    0.0181    2.5814    0.3372 H   0  0  0  0  0  0  0  0  0  0  0  0
    3.7666    0.3458    0.0998 H   0  0  0  0  0  0  0  0  0  0  0  0
    2.7851   -0.6107   -1.0409 H   0  0  0  0  0  0  0  0  0  0  0  0
    2.6953   -0.9389    0.7191 H   0  0  0  0  0  0  0  0  0  0  0  0
    0.7481   -1.6043   -0.4113 H   0  0  0  0  0  0  0  0  0  0  0  0
   -1.6898   -2.0061   -0.5916 H   0  0  0  0  0  0  0  0  0  0  0  0
   -3.5217    3.4551    0.3532 O   0  0  0  0  0  0  0  0  0  0  0  0
   -4.7652    3.1920    0.3846 C   0  0  0  0  0  0  0  0  0  0  0  0
   -5.3642    2.1167    0.2379 O   0  0  0  0  0  0  0  0  0  0  0  0
   -5.6298    4.4549    0.6567 C   0  0  0  0  0  0  0  0  0  0  0  0
   -5.4278    5.3853   -0.3014 F   0  0  0  0  0  0  0  0  0  0  0  0
   -6.9431    4.1787    0.6881 F   0  0  0  0  0  0  0  0  0  0  0  0
   -5.2975    5.0102    1.8423 F   0  0  0  0  0  0  0  0  0  0  0  0
  1  4  2  0  0  0  0
  2  1  1  0  0  0  0
  3  2  1  0  0  0  0
  4  5  1  0  0  0  0
  5 12  1  0  0  0  0
  6  7  1  0  0  0  0
  6  5  2  0  0  0  0
  8  7  1  0  0  0  0
  8 13  1  0  0  0  0
  8 15  1  0  0  0  0
  9  6  1  0  0  0  0
 10  9  2  0  0  0  0
 10  1  1  0  0  0  0
 11 18  1  0  0  0  0
 14  8  1  0  0  0  0
 16  9  1  0  0  0  0
 17 10  1  0  0  0  0
 18 19  1  0  0  0  0
 19 21  1  0  0  0  0
 20 19  2  0  0  0  0
 21 23  1  0  0  0  0
 21 24  1  0  0  0  0
 22 21  1  0  0  0  0
M  RAD  3   2   2   3   3   4   2
M  END
