Coordinates from ORCA-job 4-MeOPhN2+~CF3COO-_B3LYPG-6-31G_dp-CH-Scan-d09-49-n800
 OpenBabel11261919493D

 24 23  0  0  0  0  0  0  0  0999 V2000
   -2.0259    0.0392   -0.2041 C   0  0  0  0  0  0  0  0  0  0  0  0
   -3.3805   -0.1822   -0.2911 N   0  0  0  0  0  0  0  0  0  0  0  0
   -4.4906   -0.3187   -0.3526 N   0  0  0  0  0  0  0  0  0  0  0  0
   -1.6441    1.3726    0.0831 C   0  0  0  0  0  0  0  0  0  0  0  0
   -0.2499    1.4943    0.1548 C   0  0  0  0  0  0  0  0  0  0  0  0
    0.6403    0.4231   -0.0343 C   0  0  0  0  0  0  0  0  0  0  0  0
    1.9545    0.7154    0.0740 O   0  0  0  0  0  0  0  0  0  0  0  0
    2.9256   -0.3133   -0.0924 C   0  0  0  0  0  0  0  0  0  0  0  0
    0.1636   -0.8861   -0.3216 C   0  0  0  0  0  0  0  0  0  0  0  0
   -1.1935   -1.0914   -0.4101 C   0  0  0  0  0  0  0  0  0  0  0  0
   -3.0815    3.0536    0.3807 H   0  0  0  0  0  0  0  0  0  0  0  0
    0.2093    2.4579    0.3705 H   0  0  0  0  0  0  0  0  0  0  0  0
    3.8936    0.1677    0.0501 H   0  0  0  0  0  0  0  0  0  0  0  0
    2.8833   -0.7471   -1.0984 H   0  0  0  0  0  0  0  0  0  0  0  0
    2.8026   -1.1065    0.6544 H   0  0  0  0  0  0  0  0  0  0  0  0
    0.8446   -1.7142   -0.4702 H   0  0  0  0  0  0  0  0  0  0  0  0
   -1.6023   -2.0744   -0.6284 H   0  0  0  0  0  0  0  0  0  0  0  0
   -3.7020    3.8232    0.5163 O   0  0  0  0  0  0  0  0  0  0  0  0
   -4.9517    3.4095    0.4450 C   0  0  0  0  0  0  0  0  0  0  0  0
   -5.3551    2.2846    0.2480 O   0  0  0  0  0  0  0  0  0  0  0  0
   -5.9200    4.5978    0.6449 C   0  0  0  0  0  0  0  0  0  0  0  0
   -5.7592    5.5032   -0.3394 F   0  0  0  0  0  0  0  0  0  0  0  0
   -7.1896    4.1790    0.6311 F   0  0  0  0  0  0  0  0  0  0  0  0
   -5.6861    5.2113    1.8200 F   0  0  0  0  0  0  0  0  0  0  0  0
  1  4  2  0  0  0  0
  2  1  1  0  0  0  0
  3  2  1  0  0  0  0
  4  5  1  0  0  0  0
  5 12  1  0  0  0  0
  6  7  1  0  0  0  0
  6  5  2  0  0  0  0
  8 13  1  0  0  0  0
  8  7  1  0  0  0  0
  8 15  1  0  0  0  0
  9  6  1  0  0  0  0
 10  9  2  0  0  0  0
 10  1  1  0  0  0  0
 11 18  1  0  0  0  0
 14  8  1  0  0  0  0
 16  9  1  0  0  0  0
 17 10  1  0  0  0  0
 19 18  1  0  0  0  0
 19 21  1  0  0  0  0
 20 19  2  0  0  0  0
 21 24  1  0  0  0  0
 22 21  1  0  0  0  0
 23 21  1  0  0  0  0
M  RAD  3   2   2   3   3   4   2
M  END
