Coordinates from ORCA-job 4-MeOPhN2+~CF3COO-_B3LYPG-6-31G_dp-CH-Scan-d09-49-n800
 OpenBabel11261919493D

 24 23  0  0  0  0  0  0  0  0999 V2000
   -2.0724    0.0375   -0.2047 C   0  0  0  0  0  0  0  0  0  0  0  0
   -3.4231   -0.2034   -0.2958 N   0  0  0  0  0  0  0  0  0  0  0  0
   -4.5312   -0.3520   -0.3597 N   0  0  0  0  0  0  0  0  0  0  0  0
   -1.7052    1.3747    0.0847 C   0  0  0  0  0  0  0  0  0  0  0  0
   -0.3138    1.5147    0.1599 C   0  0  0  0  0  0  0  0  0  0  0  0
    0.5907    0.4549   -0.0283 C   0  0  0  0  0  0  0  0  0  0  0  0
    1.8999    0.7643    0.0831 O   0  0  0  0  0  0  0  0  0  0  0  0
    2.8851   -0.2515   -0.0823 C   0  0  0  0  0  0  0  0  0  0  0  0
    0.1306   -0.8592   -0.3176 C   0  0  0  0  0  0  0  0  0  0  0  0
   -1.2239   -1.0808   -0.4092 C   0  0  0  0  0  0  0  0  0  0  0  0
   -3.0186    2.9200    0.3585 H   0  0  0  0  0  0  0  0  0  0  0  0
    0.1311    2.4843    0.3777 H   0  0  0  0  0  0  0  0  0  0  0  0
    3.8463    0.2424    0.0624 H   0  0  0  0  0  0  0  0  0  0  0  0
    2.8501   -0.6849   -1.0886 H   0  0  0  0  0  0  0  0  0  0  0  0
    2.7710   -1.0465    0.6640 H   0  0  0  0  0  0  0  0  0  0  0  0
    0.8216   -1.6791   -0.4655 H   0  0  0  0  0  0  0  0  0  0  0  0
   -1.6200   -2.0684   -0.6292 H   0  0  0  0  0  0  0  0  0  0  0  0
   -3.6252    3.7169    0.4996 O   0  0  0  0  0  0  0  0  0  0  0  0
   -4.8857    3.3510    0.4346 C   0  0  0  0  0  0  0  0  0  0  0  0
   -5.3363    2.2420    0.2379 O   0  0  0  0  0  0  0  0  0  0  0  0
   -5.8118    4.5719    0.6412 C   0  0  0  0  0  0  0  0  0  0  0  0
   -5.6277    5.4726   -0.3441 F   0  0  0  0  0  0  0  0  0  0  0  0
   -7.0965    4.1992    0.6364 F   0  0  0  0  0  0  0  0  0  0  0  0
   -5.5499    5.1780    1.8148 F   0  0  0  0  0  0  0  0  0  0  0  0
  1  4  2  0  0  0  0
  2  1  1  0  0  0  0
  3  2  1  0  0  0  0
  4  5  1  0  0  0  0
  5 12  1  0  0  0  0
  6  7  1  0  0  0  0
  6  5  2  0  0  0  0
  8 13  1  0  0  0  0
  8  7  1  0  0  0  0
  8 15  1  0  0  0  0
  9  6  1  0  0  0  0
 10  9  2  0  0  0  0
 10  1  1  0  0  0  0
 11 18  1  0  0  0  0
 14  8  1  0  0  0  0
 16  9  1  0  0  0  0
 17 10  1  0  0  0  0
 19 18  1  0  0  0  0
 19 21  1  0  0  0  0
 20 19  2  0  0  0  0
 21 24  1  0  0  0  0
 22 21  1  0  0  0  0
 23 21  1  0  0  0  0
M  RAD  3   2   2   3   3   4   2
M  END
