Coordinates from ORCA-job 4-MeOPhN2+~CF3COO-_B3LYPG-6-31G_dp-CH-Scan-d09-49-n800
 OpenBabel11261919493D

 24 23  0  0  0  0  0  0  0  0999 V2000
   -1.8158    0.0507   -0.1651 C   0  0  0  0  0  0  0  0  0  0  0  0
   -3.1852   -0.0828   -0.2226 N   0  0  0  0  0  0  0  0  0  0  0  0
   -4.3040   -0.1467   -0.2620 N   0  0  0  0  0  0  0  0  0  0  0  0
   -1.3627    1.3636    0.1098 C   0  0  0  0  0  0  0  0  0  0  0  0
    0.0414    1.3986    0.1485 C   0  0  0  0  0  0  0  0  0  0  0  0
    0.8626    0.2782   -0.0579 C   0  0  0  0  0  0  0  0  0  0  0  0
    2.1969    0.4921    0.0173 O   0  0  0  0  0  0  0  0  0  0  0  0
    3.0994   -0.5913   -0.1747 C   0  0  0  0  0  0  0  0  0  0  0  0
    0.3062   -1.0044   -0.3294 C   0  0  0  0  0  0  0  0  0  0  0  0
   -1.0615   -1.1324   -0.3865 C   0  0  0  0  0  0  0  0  0  0  0  0
   -3.3523    3.6670    0.5308 H   0  0  0  0  0  0  0  0  0  0  0  0
    0.5650    2.3334    0.3496 H   0  0  0  0  0  0  0  0  0  0  0  0
    4.0986   -0.1690   -0.0621 H   0  0  0  0  0  0  0  0  0  0  0  0
    3.0030   -1.0240   -1.1778 H   0  0  0  0  0  0  0  0  0  0  0  0
    2.9529   -1.3763    0.5769 H   0  0  0  0  0  0  0  0  0  0  0  0
    0.9366   -1.8698   -0.4897 H   0  0  0  0  0  0  0  0  0  0  0  0
   -1.5319   -2.0908   -0.5917 H   0  0  0  0  0  0  0  0  0  0  0  0
   -4.0731    4.3184    0.6262 O   0  0  0  0  0  0  0  0  0  0  0  0
   -5.2349    3.6878    0.4787 C   0  0  0  0  0  0  0  0  0  0  0  0
   -5.4062    2.5131    0.2660 O   0  0  0  0  0  0  0  0  0  0  0  0
   -6.4003    4.6909    0.6263 C   0  0  0  0  0  0  0  0  0  0  0  0
   -6.2800    5.6885   -0.2675 F   0  0  0  0  0  0  0  0  0  0  0  0
   -7.5694    4.0768    0.4273 F   0  0  0  0  0  0  0  0  0  0  0  0
   -6.4001    5.2269    1.8601 F   0  0  0  0  0  0  0  0  0  0  0  0
  1  4  2  0  0  0  0
  2  1  1  0  0  0  0
  3  2  1  0  0  0  0
  4  5  1  0  0  0  0
  5 12  1  0  0  0  0
  6  7  1  0  0  0  0
  6  5  2  0  0  0  0
  8 13  1  0  0  0  0
  8  7  1  0  0  0  0
  8 15  1  0  0  0  0
  9  6  1  0  0  0  0
 10  9  2  0  0  0  0
 10  1  1  0  0  0  0
 11 18  1  0  0  0  0
 14  8  1  0  0  0  0
 16  9  1  0  0  0  0
 17 10  1  0  0  0  0
 19 18  1  0  0  0  0
 19 21  1  0  0  0  0
 20 19  2  0  0  0  0
 21 24  1  0  0  0  0
 22 21  1  0  0  0  0
 23 21  1  0  0  0  0
M  RAD  3   2   2   3   3   4   2
M  END
