Coordinates from ORCA-job 4-MeOPhN2+~CF3COO-_B3LYPG-6-31G_dp-CH-Scan-d09-49-n800
 OpenBabel11261919503D

 24 23  0  0  0  0  0  0  0  0999 V2000
   -1.3995    0.1656   -0.2601 C   0  0  0  0  0  0  0  0  0  0  0  0
   -2.7751    0.2380   -0.3288 N   0  0  0  0  0  0  0  0  0  0  0  0
   -3.8901    0.3580   -0.3779 N   0  0  0  0  0  0  0  0  0  0  0  0
   -0.7772    1.4207   -0.0613 C   0  0  0  0  0  0  0  0  0  0  0  0
    0.6203    1.2540   -0.0040 C   0  0  0  0  0  0  0  0  0  0  0  0
    1.2747    0.0191   -0.1281 C   0  0  0  0  0  0  0  0  0  0  0  0
    2.6279    0.0455   -0.0484 O   0  0  0  0  0  0  0  0  0  0  0  0
    3.3666   -1.1645   -0.1633 C   0  0  0  0  0  0  0  0  0  0  0  0
    0.5447   -1.1893   -0.3267 C   0  0  0  0  0  0  0  0  0  0  0  0
   -0.8268   -1.1275   -0.3962 C   0  0  0  0  0  0  0  0  0  0  0  0
   -4.0065    4.8554    0.5576 H   0  0  0  0  0  0  0  0  0  0  0  0
    1.2726    2.1156    0.1459 H   0  0  0  0  0  0  0  0  0  0  0  0
    4.4162   -0.8830   -0.0668 H   0  0  0  0  0  0  0  0  0  0  0  0
    3.2112   -1.6427   -1.1386 H   0  0  0  0  0  0  0  0  0  0  0  0
    3.1091   -1.8727    0.6337 H   0  0  0  0  0  0  0  0  0  0  0  0
    1.0496   -2.1424   -0.4229 H   0  0  0  0  0  0  0  0  0  0  0  0
   -1.4281   -2.0210   -0.5471 H   0  0  0  0  0  0  0  0  0  0  0  0
   -4.9001    5.2150    0.6933 O   0  0  0  0  0  0  0  0  0  0  0  0
   -5.7696    4.2087    0.5500 C   0  0  0  0  0  0  0  0  0  0  0  0
   -5.5038    3.0621    0.2991 O   0  0  0  0  0  0  0  0  0  0  0  0
   -7.2094    4.7259    0.7572 C   0  0  0  0  0  0  0  0  0  0  0  0
   -7.4891    5.6964   -0.1297 F   0  0  0  0  0  0  0  0  0  0  0  0
   -8.0843    3.7314    0.5973 F   0  0  0  0  0  0  0  0  0  0  0  0
   -7.3479    5.2303    1.9959 F   0  0  0  0  0  0  0  0  0  0  0  0
  1  4  2  0  0  0  0
  2  1  1  0  0  0  0
  3  2  1  0  0  0  0
  4  5  1  0  0  0  0
  5 12  1  0  0  0  0
  6  7  1  0  0  0  0
  6  5  2  0  0  0  0
  8 13  1  0  0  0  0
  8  7  1  0  0  0  0
  8 15  1  0  0  0  0
  9  6  1  0  0  0  0
 10  9  2  0  0  0  0
 10  1  1  0  0  0  0
 11 18  1  0  0  0  0
 14  8  1  0  0  0  0
 16  9  1  0  0  0  0
 17 10  1  0  0  0  0
 19 18  1  0  0  0  0
 19 21  1  0  0  0  0
 20 19  2  0  0  0  0
 21 24  1  0  0  0  0
 22 21  1  0  0  0  0
 23 21  1  0  0  0  0
M  RAD  3   2   2   3   3   4   2
M  END
