Coordinates from ORCA-job 4-MeOPhN2+~CF3COO-_B3LYPG-6-31G_dp-CH-Scan-d09-49-n800
 OpenBabel11261919493D

 24 23  0  0  0  0  0  0  0  0999 V2000
   -2.1113    0.0384   -0.2101 C   0  0  0  0  0  0  0  0  0  0  0  0
   -3.4588   -0.2171   -0.3062 N   0  0  0  0  0  0  0  0  0  0  0  0
   -4.5653   -0.3740   -0.3731 N   0  0  0  0  0  0  0  0  0  0  0  0
   -1.7546    1.3788    0.0777 C   0  0  0  0  0  0  0  0  0  0  0  0
   -0.3662    1.5337    0.1581 C   0  0  0  0  0  0  0  0  0  0  0  0
    0.5494    0.4820   -0.0246 C   0  0  0  0  0  0  0  0  0  0  0  0
    1.8543    0.8048    0.0909 O   0  0  0  0  0  0  0  0  0  0  0  0
    2.8506   -0.2015   -0.0690 C   0  0  0  0  0  0  0  0  0  0  0  0
    0.1023   -0.8362   -0.3126 C   0  0  0  0  0  0  0  0  0  0  0  0
   -1.2500   -1.0704   -0.4087 C   0  0  0  0  0  0  0  0  0  0  0  0
   -2.9613    2.8069    0.3274 H   0  0  0  0  0  0  0  0  0  0  0  0
    0.0665    2.5086    0.3756 H   0  0  0  0  0  0  0  0  0  0  0  0
    3.8060    0.3027    0.0776 H   0  0  0  0  0  0  0  0  0  0  0  0
    2.8229   -0.6372   -1.0745 H   0  0  0  0  0  0  0  0  0  0  0  0
    2.7419   -0.9957    0.6788 H   0  0  0  0  0  0  0  0  0  0  0  0
    0.8010   -1.6502   -0.4564 H   0  0  0  0  0  0  0  0  0  0  0  0
   -1.6359   -2.0620   -0.6280 H   0  0  0  0  0  0  0  0  0  0  0  0
   -3.5622    3.6313    0.4733 O   0  0  0  0  0  0  0  0  0  0  0  0
   -4.8290    3.3021    0.4282 C   0  0  0  0  0  0  0  0  0  0  0  0
   -5.3180    2.2050    0.2423 O   0  0  0  0  0  0  0  0  0  0  0  0
   -5.7218    4.5469    0.6429 C   0  0  0  0  0  0  0  0  0  0  0  0
   -5.5252    5.4432   -0.3448 F   0  0  0  0  0  0  0  0  0  0  0  0
   -7.0171    4.2106    0.6523 F   0  0  0  0  0  0  0  0  0  0  0  0
   -5.4325    5.1478    1.8133 F   0  0  0  0  0  0  0  0  0  0  0  0
  1  4  2  0  0  0  0
  2  1  1  0  0  0  0
  3  2  1  0  0  0  0
  4  5  1  0  0  0  0
  5 12  1  0  0  0  0
  6  7  1  0  0  0  0
  6  5  2  0  0  0  0
  8 13  1  0  0  0  0
  8  7  1  0  0  0  0
  8 15  1  0  0  0  0
  9  6  1  0  0  0  0
 10  9  2  0  0  0  0
 10  1  1  0  0  0  0
 11 18  1  0  0  0  0
 14  8  1  0  0  0  0
 16  9  1  0  0  0  0
 17 10  1  0  0  0  0
 19 18  1  0  0  0  0
 19 21  1  0  0  0  0
 20 19  2  0  0  0  0
 21 23  1  0  0  0  0
 21 24  1  0  0  0  0
 22 21  1  0  0  0  0
M  RAD  3   2   2   3   3   4   2
M  END
