Coordinates from ORCA-job 4-MeOPhN2+~CF3COO-_B3LYPG-6-31G_dp-CH-Scan-d09-49-n800
 OpenBabel11261919493D

 24 23  0  0  0  0  0  0  0  0999 V2000
   -1.7767    0.0534   -0.1582 C   0  0  0  0  0  0  0  0  0  0  0  0
   -3.1482   -0.0636   -0.2100 N   0  0  0  0  0  0  0  0  0  0  0  0
   -4.2680   -0.1126   -0.2446 N   0  0  0  0  0  0  0  0  0  0  0  0
   -1.3103    1.3616    0.1164 C   0  0  0  0  0  0  0  0  0  0  0  0
    0.0950    1.3802    0.1491 C   0  0  0  0  0  0  0  0  0  0  0  0
    0.9030    0.2513   -0.0619 C   0  0  0  0  0  0  0  0  0  0  0  0
    2.2403    0.4504    0.0080 O   0  0  0  0  0  0  0  0  0  0  0  0
    3.1298   -0.6425   -0.1896 C   0  0  0  0  0  0  0  0  0  0  0  0
    0.3319   -1.0253   -0.3326 C   0  0  0  0  0  0  0  0  0  0  0  0
   -1.0374   -1.1383   -0.3842 C   0  0  0  0  0  0  0  0  0  0  0  0
   -3.4064    3.7813    0.5674 H   0  0  0  0  0  0  0  0  0  0  0  0
    0.6302    2.3088    0.3491 H   0  0  0  0  0  0  0  0  0  0  0  0
    4.1343   -0.2314   -0.0817 H   0  0  0  0  0  0  0  0  0  0  0  0
    3.0238   -1.0733   -1.1927 H   0  0  0  0  0  0  0  0  0  0  0  0
    2.9786   -1.4268    0.5618 H   0  0  0  0  0  0  0  0  0  0  0  0
    0.9524   -1.8971   -0.4964 H   0  0  0  0  0  0  0  0  0  0  0  0
   -1.5191   -2.0914   -0.5886 H   0  0  0  0  0  0  0  0  0  0  0  0
   -4.1471    4.4092    0.6541 O   0  0  0  0  0  0  0  0  0  0  0  0
   -5.2864    3.7406    0.4862 C   0  0  0  0  0  0  0  0  0  0  0  0
   -5.4132    2.5621    0.2663 O   0  0  0  0  0  0  0  0  0  0  0  0
   -6.4857    4.7046    0.6206 C   0  0  0  0  0  0  0  0  0  0  0  0
   -6.3829    5.7113   -0.2649 F   0  0  0  0  0  0  0  0  0  0  0  0
   -7.6307    4.0544    0.3991 F   0  0  0  0  0  0  0  0  0  0  0  0
   -6.5218    5.2318    1.8577 F   0  0  0  0  0  0  0  0  0  0  0  0
  1  4  2  0  0  0  0
  2  1  1  0  0  0  0
  3  2  1  0  0  0  0
  4  5  1  0  0  0  0
  5 12  1  0  0  0  0
  6  7  1  0  0  0  0
  6  5  2  0  0  0  0
  8 13  1  0  0  0  0
  8  7  1  0  0  0  0
  8 15  1  0  0  0  0
  9  6  1  0  0  0  0
 10  9  2  0  0  0  0
 10  1  1  0  0  0  0
 11 18  1  0  0  0  0
 14  8  1  0  0  0  0
 16  9  1  0  0  0  0
 17 10  1  0  0  0  0
 19 21  1  0  0  0  0
 19 18  1  0  0  0  0
 20 19  2  0  0  0  0
 21 24  1  0  0  0  0
 22 21  1  0  0  0  0
 23 21  1  0  0  0  0
M  RAD  3   2   2   3   3   4   2
M  END
