Coordinates from ORCA-job 4-MeOPhN2+~CF3COO-_B3LYPG-6-31G_dp-CH-Scan-d09-49-n800
 OpenBabel11261919503D

 24 23  0  0  0  0  0  0  0  0999 V2000
   -1.3650    0.1902   -0.2761 C   0  0  0  0  0  0  0  0  0  0  0  0
   -2.7389    0.2854   -0.3528 N   0  0  0  0  0  0  0  0  0  0  0  0
   -3.8515    0.4240   -0.4070 N   0  0  0  0  0  0  0  0  0  0  0  0
   -0.7237    1.4351   -0.0747 C   0  0  0  0  0  0  0  0  0  0  0  0
    0.6706    1.2455   -0.0084 C   0  0  0  0  0  0  0  0  0  0  0  0
    1.3052   -0.0000   -0.1274 C   0  0  0  0  0  0  0  0  0  0  0  0
    2.6583    0.0042   -0.0395 O   0  0  0  0  0  0  0  0  0  0  0  0
    3.3777   -1.2177   -0.1503 C   0  0  0  0  0  0  0  0  0  0  0  0
    0.5569   -1.1966   -0.3296 C   0  0  0  0  0  0  0  0  0  0  0  0
   -0.8130   -1.1124   -0.4075 C   0  0  0  0  0  0  0  0  0  0  0  0
   -4.0724    4.9663    0.4967 H   0  0  0  0  0  0  0  0  0  0  0  0
    1.3360    2.0964    0.1450 H   0  0  0  0  0  0  0  0  0  0  0  0
    4.4313   -0.9534   -0.0483 H   0  0  0  0  0  0  0  0  0  0  0  0
    3.2197   -1.6936   -1.1263 H   0  0  0  0  0  0  0  0  0  0  0  0
    3.1047   -1.9216    0.6456 H   0  0  0  0  0  0  0  0  0  0  0  0
    1.0466   -2.1578   -0.4218 H   0  0  0  0  0  0  0  0  0  0  0  0
   -1.4280   -1.9960   -0.5612 H   0  0  0  0  0  0  0  0  0  0  0  0
   -4.9759    5.2905    0.6549 O   0  0  0  0  0  0  0  0  0  0  0  0
   -5.8063    4.2473    0.5458 C   0  0  0  0  0  0  0  0  0  0  0  0
   -5.4994    3.1104    0.2981 O   0  0  0  0  0  0  0  0  0  0  0  0
   -7.2603    4.7061    0.7882 C   0  0  0  0  0  0  0  0  0  0  0  0
   -7.6090    5.6448   -0.1085 F   0  0  0  0  0  0  0  0  0  0  0  0
   -8.0950    3.6716    0.6751 F   0  0  0  0  0  0  0  0  0  0  0  0
   -7.3832    5.2299    2.0204 F   0  0  0  0  0  0  0  0  0  0  0  0
  1  4  2  0  0  0  0
  2  1  1  0  0  0  0
  3  2  1  0  0  0  0
  4  5  1  0  0  0  0
  5 12  1  0  0  0  0
  6  7  1  0  0  0  0
  6  5  2  0  0  0  0
  8 13  1  0  0  0  0
  8  7  1  0  0  0  0
  8 15  1  0  0  0  0
  9  6  1  0  0  0  0
 10  9  2  0  0  0  0
 10  1  1  0  0  0  0
 11 18  1  0  0  0  0
 14  8  1  0  0  0  0
 16  9  1  0  0  0  0
 17 10  1  0  0  0  0
 19 18  1  0  0  0  0
 19 21  1  0  0  0  0
 20 19  2  0  0  0  0
 21 24  1  0  0  0  0
 22 21  1  0  0  0  0
 23 21  1  0  0  0  0
M  RAD  3   2   2   3   3   4   2
M  END
