Coordinates from ORCA-job 4-MeOPhN2+~CF3COO-_B3LYPG-6-31G_dp-CH-Scan-d09-49-n800
 OpenBabel11261919493D

 24 23  0  0  0  0  0  0  0  0999 V2000
   -2.0107    0.0398   -0.2039 C   0  0  0  0  0  0  0  0  0  0  0  0
   -3.3666   -0.1753   -0.2893 N   0  0  0  0  0  0  0  0  0  0  0  0
   -4.4774   -0.3073   -0.3498 N   0  0  0  0  0  0  0  0  0  0  0  0
   -1.6241    1.3720    0.0824 C   0  0  0  0  0  0  0  0  0  0  0  0
   -0.2290    1.4877    0.1528 C   0  0  0  0  0  0  0  0  0  0  0  0
    0.6565    0.4127   -0.0364 C   0  0  0  0  0  0  0  0  0  0  0  0
    1.9722    0.6994    0.0709 O   0  0  0  0  0  0  0  0  0  0  0  0
    2.9386   -0.3334   -0.0958 C   0  0  0  0  0  0  0  0  0  0  0  0
    0.1743   -0.8948   -0.3227 C   0  0  0  0  0  0  0  0  0  0  0  0
   -1.1836   -1.0948   -0.4100 C   0  0  0  0  0  0  0  0  0  0  0  0
   -3.1014    3.0973    0.3874 H   0  0  0  0  0  0  0  0  0  0  0  0
    0.2347    2.4494    0.3676 H   0  0  0  0  0  0  0  0  0  0  0  0
    3.9089    0.1433    0.0458 H   0  0  0  0  0  0  0  0  0  0  0  0
    2.8939   -0.7676   -1.1016 H   0  0  0  0  0  0  0  0  0  0  0  0
    2.8128   -1.1259    0.6514 H   0  0  0  0  0  0  0  0  0  0  0  0
    0.8519   -1.7257   -0.4714 H   0  0  0  0  0  0  0  0  0  0  0  0
   -1.5966   -2.0762   -0.6276 H   0  0  0  0  0  0  0  0  0  0  0  0
   -3.7275    3.8584    0.5214 O   0  0  0  0  0  0  0  0  0  0  0  0
   -4.9730    3.4289    0.4481 C   0  0  0  0  0  0  0  0  0  0  0  0
   -5.3606    2.2990    0.2508 O   0  0  0  0  0  0  0  0  0  0  0  0
   -5.9552    4.6058    0.6462 C   0  0  0  0  0  0  0  0  0  0  0  0
   -5.8016    5.5138   -0.3367 F   0  0  0  0  0  0  0  0  0  0  0  0
   -7.2195    4.1721    0.6281 F   0  0  0  0  0  0  0  0  0  0  0  0
   -5.7315    5.2203    1.8226 F   0  0  0  0  0  0  0  0  0  0  0  0
  1  4  2  0  0  0  0
  2  1  1  0  0  0  0
  3  2  1  0  0  0  0
  4  5  1  0  0  0  0
  5 12  1  0  0  0  0
  6  7  1  0  0  0  0
  6  5  2  0  0  0  0
  8 13  1  0  0  0  0
  8  7  1  0  0  0  0
  8 15  1  0  0  0  0
  9  6  1  0  0  0  0
 10  9  2  0  0  0  0
 10  1  1  0  0  0  0
 11 18  1  0  0  0  0
 14  8  1  0  0  0  0
 16  9  1  0  0  0  0
 17 10  1  0  0  0  0
 19 18  1  0  0  0  0
 19 21  1  0  0  0  0
 20 19  2  0  0  0  0
 21 24  1  0  0  0  0
 22 21  1  0  0  0  0
 23 21  1  0  0  0  0
M  RAD  3   2   2   3   3   4   2
M  END
