Coordinates from ORCA-job 4-MeOPhN2+~CF3COO-_B3LYPG-6-31G_dp-CH-Scan-d09-49-n800
 OpenBabel11261919493D

 24 23  0  0  0  0  0  0  0  0999 V2000
   -1.5530    0.1101   -0.2767 C   0  0  0  0  0  0  0  0  0  0  0  0
   -2.9291    0.1030   -0.3630 N   0  0  0  0  0  0  0  0  0  0  0  0
   -4.0485    0.1541   -0.4255 N   0  0  0  0  0  0  0  0  0  0  0  0
   -1.0030    1.3944   -0.0501 C   0  0  0  0  0  0  0  0  0  0  0  0
    0.4004    1.3046    0.0246 C   0  0  0  0  0  0  0  0  0  0  0  0
    1.1244    0.1097   -0.1067 C   0  0  0  0  0  0  0  0  0  0  0  0
    2.4723    0.2094   -0.0041 O   0  0  0  0  0  0  0  0  0  0  0  0
    3.2780   -0.9574   -0.1172 C   0  0  0  0  0  0  0  0  0  0  0  0
    0.4656   -1.1335   -0.3352 C   0  0  0  0  0  0  0  0  0  0  0  0
   -0.9061   -1.1462   -0.4245 C   0  0  0  0  0  0  0  0  0  0  0  0
   -3.7431    4.4716    0.4783 H   0  0  0  0  0  0  0  0  0  0  0  0
    1.0017    2.1985    0.1966 H   0  0  0  0  0  0  0  0  0  0  0  0
    4.3084   -0.6206    0.0045 H   0  0  0  0  0  0  0  0  0  0  0  0
    3.1686   -1.4308   -1.1009 H   0  0  0  0  0  0  0  0  0  0  0  0
    3.0428   -1.6880    0.6662 H   0  0  0  0  0  0  0  0  0  0  0  0
    1.0236   -2.0556   -0.4392 H   0  0  0  0  0  0  0  0  0  0  0  0
   -1.4545   -2.0689   -0.5995 H   0  0  0  0  0  0  0  0  0  0  0  0
   -4.5855    4.9315    0.6365 O   0  0  0  0  0  0  0  0  0  0  0  0
   -5.5705    4.0360    0.5194 C   0  0  0  0  0  0  0  0  0  0  0  0
   -5.4520    2.8660    0.2626 O   0  0  0  0  0  0  0  0  0  0  0  0
   -6.9330    4.7200    0.7650 C   0  0  0  0  0  0  0  0  0  0  0  0
   -7.1239    5.7120   -0.1224 F   0  0  0  0  0  0  0  0  0  0  0  0
   -7.9234    3.8347    0.6393 F   0  0  0  0  0  0  0  0  0  0  0  0
   -6.9749    5.2442    2.0023 F   0  0  0  0  0  0  0  0  0  0  0  0
  1  4  2  0  0  0  0
  2  1  1  0  0  0  0
  3  2  1  0  0  0  0
  4  5  1  0  0  0  0
  5 12  1  0  0  0  0
  6  7  1  0  0  0  0
  6  5  2  0  0  0  0
  8  7  1  0  0  0  0
  8 13  1  0  0  0  0
  8 15  1  0  0  0  0
  9  6  1  0  0  0  0
 10  9  2  0  0  0  0
 10  1  1  0  0  0  0
 11 18  1  0  0  0  0
 14  8  1  0  0  0  0
 16  9  1  0  0  0  0
 17 10  1  0  0  0  0
 19 18  1  0  0  0  0
 19 21  1  0  0  0  0
 20 19  2  0  0  0  0
 21 24  1  0  0  0  0
 22 21  1  0  0  0  0
 23 21  1  0  0  0  0
M  RAD  3   2   2   3   3   4   2
M  END
