Coordinates from ORCA-job 4-MeOPhN2+~CF3COO-_B3LYPG-6-31G_dp-CH-Scan-d09-49-n800
 OpenBabel11261919493D

 24 23  0  0  0  0  0  0  0  0999 V2000
   -1.5952    0.0830   -0.1358 C   0  0  0  0  0  0  0  0  0  0  0  0
   -2.9732    0.0497   -0.1654 N   0  0  0  0  0  0  0  0  0  0  0  0
   -4.0949    0.0768   -0.1789 N   0  0  0  0  0  0  0  0  0  0  0  0
   -1.0592    1.3655    0.1315 C   0  0  0  0  0  0  0  0  0  0  0  0
    0.3474    1.3015    0.1418 C   0  0  0  0  0  0  0  0  0  0  0  0
    1.0874    0.1301   -0.0819 C   0  0  0  0  0  0  0  0  0  0  0  0
    2.4363    0.2534   -0.0344 O   0  0  0  0  0  0  0  0  0  0  0  0
    3.2585   -0.8869   -0.2503 C   0  0  0  0  0  0  0  0  0  0  0  0
    0.4425   -1.1138   -0.3429 C   0  0  0  0  0  0  0  0  0  0  0  0
   -0.9314   -1.1506   -0.3731 C   0  0  0  0  0  0  0  0  0  0  0  0
   -3.6783    4.3220    0.7235 H   0  0  0  0  0  0  0  0  0  0  0  0
    0.9386    2.1981    0.3329 H   0  0  0  0  0  0  0  0  0  0  0  0
    4.2868   -0.5332   -0.1636 H   0  0  0  0  0  0  0  0  0  0  0  0
    3.1080   -1.3108   -1.2509 H   0  0  0  0  0  0  0  0  0  0  0  0
    3.0798   -1.6629    0.5039 H   0  0  0  0  0  0  0  0  0  0  0  0
    1.0117   -2.0184   -0.5159 H   0  0  0  0  0  0  0  0  0  0  0  0
   -1.4694   -2.0751   -0.5691 H   0  0  0  0  0  0  0  0  0  0  0  0
   -4.5084    4.8274    0.7686 O   0  0  0  0  0  0  0  0  0  0  0  0
   -5.5163    3.9850    0.5256 C   0  0  0  0  0  0  0  0  0  0  0  0
   -5.4299    2.8076    0.2897 O   0  0  0  0  0  0  0  0  0  0  0  0
   -6.8616    4.7395    0.5991 C   0  0  0  0  0  0  0  0  0  0  0  0
   -6.8681    5.7776   -0.2548 F   0  0  0  0  0  0  0  0  0  0  0  0
   -7.8678    3.9203    0.2878 F   0  0  0  0  0  0  0  0  0  0  0  0
   -7.0578    5.2128    1.8428 F   0  0  0  0  0  0  0  0  0  0  0  0
  1  4  2  0  0  0  0
  2  1  1  0  0  0  0
  3  2  1  0  0  0  0
  4  5  1  0  0  0  0
  5 12  1  0  0  0  0
  6  7  1  0  0  0  0
  6  5  2  0  0  0  0
  8 13  1  0  0  0  0
  8  7  1  0  0  0  0
  8 15  1  0  0  0  0
  9  6  1  0  0  0  0
 10  9  2  0  0  0  0
 10  1  1  0  0  0  0
 11 18  1  0  0  0  0
 14  8  1  0  0  0  0
 16  9  1  0  0  0  0
 17 10  1  0  0  0  0
 19 21  1  0  0  0  0
 19 18  1  0  0  0  0
 20 19  2  0  0  0  0
 21 24  1  0  0  0  0
 22 21  1  0  0  0  0
 23 21  1  0  0  0  0
M  RAD  3   2   2   3   3   4   2
M  END
