Coordinates from ORCA-job 4-MeOPhN2+~CF3COO-_B3LYPG-6-31G_dp-CH-Scan-d09-49-n800
 OpenBabel11261919493D

 24 23  0  0  0  0  0  0  0  0999 V2000
   -1.7705    0.0537   -0.1577 C   0  0  0  0  0  0  0  0  0  0  0  0
   -3.1423   -0.0608   -0.2089 N   0  0  0  0  0  0  0  0  0  0  0  0
   -4.2623   -0.1075   -0.2419 N   0  0  0  0  0  0  0  0  0  0  0  0
   -1.3022    1.3612    0.1170 C   0  0  0  0  0  0  0  0  0  0  0  0
    0.1032    1.3772    0.1490 C   0  0  0  0  0  0  0  0  0  0  0  0
    0.9093    0.2471   -0.0625 C   0  0  0  0  0  0  0  0  0  0  0  0
    2.2470    0.4439    0.0068 O   0  0  0  0  0  0  0  0  0  0  0  0
    3.1346   -0.6504   -0.1915 C   0  0  0  0  0  0  0  0  0  0  0  0
    0.3360   -1.0286   -0.3332 C   0  0  0  0  0  0  0  0  0  0  0  0
   -1.0334   -1.1394   -0.3842 C   0  0  0  0  0  0  0  0  0  0  0  0
   -3.4153    3.7988    0.5721 H   0  0  0  0  0  0  0  0  0  0  0  0
    0.6402    2.3048    0.3488 H   0  0  0  0  0  0  0  0  0  0  0  0
    4.1398   -0.2410   -0.0841 H   0  0  0  0  0  0  0  0  0  0  0  0
    3.0273   -1.0810   -1.1945 H   0  0  0  0  0  0  0  0  0  0  0  0
    2.9826   -1.4346    0.5600 H   0  0  0  0  0  0  0  0  0  0  0  0
    0.9551   -1.9014   -0.4974 H   0  0  0  0  0  0  0  0  0  0  0  0
   -1.5169   -2.0916   -0.5886 H   0  0  0  0  0  0  0  0  0  0  0  0
   -4.1589    4.4231    0.6575 O   0  0  0  0  0  0  0  0  0  0  0  0
   -5.2948    3.7489    0.4874 C   0  0  0  0  0  0  0  0  0  0  0  0
   -5.4149    2.5699    0.2669 O   0  0  0  0  0  0  0  0  0  0  0  0
   -6.4990    4.7070    0.6202 C   0  0  0  0  0  0  0  0  0  0  0  0
   -6.3994    5.7146   -0.2646 F   0  0  0  0  0  0  0  0  0  0  0  0
   -7.6403    4.0514    0.3964 F   0  0  0  0  0  0  0  0  0  0  0  0
   -6.5396    5.2333    1.8575 F   0  0  0  0  0  0  0  0  0  0  0  0
  1  4  2  0  0  0  0
  2  1  1  0  0  0  0
  3  2  1  0  0  0  0
  4  5  1  0  0  0  0
  5 12  1  0  0  0  0
  6  7  1  0  0  0  0
  6  5  2  0  0  0  0
  8 13  1  0  0  0  0
  8  7  1  0  0  0  0
  8 15  1  0  0  0  0
  9  6  1  0  0  0  0
 10  9  2  0  0  0  0
 10  1  1  0  0  0  0
 11 18  1  0  0  0  0
 14  8  1  0  0  0  0
 16  9  1  0  0  0  0
 17 10  1  0  0  0  0
 19 21  1  0  0  0  0
 19 18  1  0  0  0  0
 20 19  2  0  0  0  0
 21 24  1  0  0  0  0
 22 21  1  0  0  0  0
 23 21  1  0  0  0  0
M  RAD  3   2   2   3   3   4   2
M  END
