Coordinates from ORCA-job 4-MeOPhN2+~CF3COO-_B3LYPG-6-31G_dp-CH-Scan-d09-49-n800
 OpenBabel11261919493D

 24 23  0  0  0  0  0  0  0  0999 V2000
   -1.6548    0.0661   -0.1450 C   0  0  0  0  0  0  0  0  0  0  0  0
   -3.0312    0.0026   -0.1824 N   0  0  0  0  0  0  0  0  0  0  0  0
   -4.1530    0.0034   -0.2006 N   0  0  0  0  0  0  0  0  0  0  0  0
   -1.1455    1.3588    0.1263 C   0  0  0  0  0  0  0  0  0  0  0  0
    0.2615    1.3250    0.1446 C   0  0  0  0  0  0  0  0  0  0  0  0
    1.0271    0.1692   -0.0752 C   0  0  0  0  0  0  0  0  0  0  0  0
    2.3724    0.3206   -0.0190 O   0  0  0  0  0  0  0  0  0  0  0  0
    3.2199   -0.8024   -0.2283 C   0  0  0  0  0  0  0  0  0  0  0  0
    0.4097   -1.0873   -0.3412 C   0  0  0  0  0  0  0  0  0  0  0  0
   -0.9630   -1.1525   -0.3795 C   0  0  0  0  0  0  0  0  0  0  0  0
   -3.5866    4.1316    0.6662 H   0  0  0  0  0  0  0  0  0  0  0  0
    0.8324    2.2337    0.3396 H   0  0  0  0  0  0  0  0  0  0  0  0
    4.2398   -0.4274   -0.1332 H   0  0  0  0  0  0  0  0  0  0  0  0
    3.0862   -1.2289   -1.2301 H   0  0  0  0  0  0  0  0  0  0  0  0
    3.0511   -1.5820    0.5244 H   0  0  0  0  0  0  0  0  0  0  0  0
    0.9983   -1.9797   -0.5118 H   0  0  0  0  0  0  0  0  0  0  0  0
   -1.4804   -2.0878   -0.5798 H   0  0  0  0  0  0  0  0  0  0  0  0
   -4.3853    4.6844    0.7269 O   0  0  0  0  0  0  0  0  0  0  0  0
   -5.4464    3.9039    0.5113 C   0  0  0  0  0  0  0  0  0  0  0  0
   -5.4385    2.7222    0.2794 O   0  0  0  0  0  0  0  0  0  0  0  0
   -6.7413    4.7396    0.6095 C   0  0  0  0  0  0  0  0  0  0  0  0
   -6.7067    5.7667   -0.2571 F   0  0  0  0  0  0  0  0  0  0  0  0
   -7.8038    3.9805    0.3339 F   0  0  0  0  0  0  0  0  0  0  0  0
   -6.8766    5.2381    1.8516 F   0  0  0  0  0  0  0  0  0  0  0  0
  1  4  2  0  0  0  0
  2  1  1  0  0  0  0
  3  2  1  0  0  0  0
  4  5  1  0  0  0  0
  5 12  1  0  0  0  0
  6  7  1  0  0  0  0
  6  5  2  0  0  0  0
  8 13  1  0  0  0  0
  8  7  1  0  0  0  0
  8 15  1  0  0  0  0
  9  6  1  0  0  0  0
 10  9  2  0  0  0  0
 10  1  1  0  0  0  0
 11 18  1  0  0  0  0
 14  8  1  0  0  0  0
 16  9  1  0  0  0  0
 17 10  1  0  0  0  0
 19 21  1  0  0  0  0
 19 18  1  0  0  0  0
 20 19  2  0  0  0  0
 21 24  1  0  0  0  0
 22 21  1  0  0  0  0
 23 21  1  0  0  0  0
M  RAD  3   2   2   3   3   4   2
M  END
