Coordinates from ORCA-job 4-MeOPhN2+~CF3COO-_B3LYPG-6-31G_dp-CH-Scan-d09-49-n800
 OpenBabel11261919493D

 24 23  0  0  0  0  0  0  0  0999 V2000
   -1.6397    0.0699   -0.1425 C   0  0  0  0  0  0  0  0  0  0  0  0
   -3.0166    0.0139   -0.1777 N   0  0  0  0  0  0  0  0  0  0  0  0
   -4.1384    0.0214   -0.1959 N   0  0  0  0  0  0  0  0  0  0  0  0
   -1.1239    1.3602    0.1275 C   0  0  0  0  0  0  0  0  0  0  0  0
    0.2831    1.3190    0.1437 C   0  0  0  0  0  0  0  0  0  0  0  0
    1.0424    0.1593   -0.0771 C   0  0  0  0  0  0  0  0  0  0  0  0
    2.3887    0.3038   -0.0232 O   0  0  0  0  0  0  0  0  0  0  0  0
    3.2299   -0.8236   -0.2340 C   0  0  0  0  0  0  0  0  0  0  0  0
    0.4182   -1.0942   -0.3416 C   0  0  0  0  0  0  0  0  0  0  0  0
   -0.9549   -1.1525   -0.3776 C   0  0  0  0  0  0  0  0  0  0  0  0
   -3.6094    4.1790    0.6811 H   0  0  0  0  0  0  0  0  0  0  0  0
    0.8591    2.2248    0.3375 H   0  0  0  0  0  0  0  0  0  0  0  0
    4.2520   -0.4538   -0.1411 H   0  0  0  0  0  0  0  0  0  0  0  0
    3.0920   -1.2497   -1.2354 H   0  0  0  0  0  0  0  0  0  0  0  0
    3.0588   -1.6021    0.5193 H   0  0  0  0  0  0  0  0  0  0  0  0
    1.0021   -1.9896   -0.5126 H   0  0  0  0  0  0  0  0  0  0  0  0
   -1.4774   -2.0852   -0.5766 H   0  0  0  0  0  0  0  0  0  0  0  0
   -4.4159    4.7203    0.7381 O   0  0  0  0  0  0  0  0  0  0  0  0
   -5.4643    3.9244    0.5149 C   0  0  0  0  0  0  0  0  0  0  0  0
   -5.4370    2.7434    0.2815 O   0  0  0  0  0  0  0  0  0  0  0  0
   -6.7722    4.7404    0.6069 C   0  0  0  0  0  0  0  0  0  0  0  0
   -6.7470    5.7709   -0.2559 F   0  0  0  0  0  0  0  0  0  0  0  0
   -7.8210    3.9663    0.3214 F   0  0  0  0  0  0  0  0  0  0  0  0
   -6.9232    5.2323    1.8497 F   0  0  0  0  0  0  0  0  0  0  0  0
  1  4  2  0  0  0  0
  2  1  1  0  0  0  0
  3  2  1  0  0  0  0
  4  5  1  0  0  0  0
  5 12  1  0  0  0  0
  6  7  1  0  0  0  0
  6  5  2  0  0  0  0
  8 13  1  0  0  0  0
  8  7  1  0  0  0  0
  8 15  1  0  0  0  0
  9  6  1  0  0  0  0
 10  9  2  0  0  0  0
 10  1  1  0  0  0  0
 11 18  1  0  0  0  0
 14  8  1  0  0  0  0
 16  9  1  0  0  0  0
 17 10  1  0  0  0  0
 19 21  1  0  0  0  0
 19 18  1  0  0  0  0
 20 19  2  0  0  0  0
 21 24  1  0  0  0  0
 22 21  1  0  0  0  0
 23 21  1  0  0  0  0
M  RAD  3   2   2   3   3   4   2
M  END
