Coordinates from ORCA-job 4-MeOPhN2+~CF3COO-_B3LYPG-6-31G_dp-CH-Scan-d09-49-n800
 OpenBabel11261919493D

 24 23  0  0  0  0  0  0  0  0999 V2000
   -1.4912    0.1252   -0.2708 C   0  0  0  0  0  0  0  0  0  0  0  0
   -2.8678    0.1471   -0.3495 N   0  0  0  0  0  0  0  0  0  0  0  0
   -3.9860    0.2240   -0.4068 N   0  0  0  0  0  0  0  0  0  0  0  0
   -0.9146    1.4001   -0.0589 C   0  0  0  0  0  0  0  0  0  0  0  0
    0.4873    1.2825    0.0083 C   0  0  0  0  0  0  0  0  0  0  0  0
    1.1861    0.0723   -0.1175 C   0  0  0  0  0  0  0  0  0  0  0  0
    2.5366    0.1457   -0.0252 O   0  0  0  0  0  0  0  0  0  0  0  0
    3.3181   -1.0375   -0.1364 C   0  0  0  0  0  0  0  0  0  0  0  0
    0.5009   -1.1596   -0.3305 C   0  0  0  0  0  0  0  0  0  0  0  0
   -0.8713   -1.1456   -0.4111 C   0  0  0  0  0  0  0  0  0  0  0  0
   -3.8479    4.6205    0.5202 H   0  0  0  0  0  0  0  0  0  0  0  0
    1.1075    2.1656    0.1688 H   0  0  0  0  0  0  0  0  0  0  0  0
    4.3560   -0.7202   -0.0263 H   0  0  0  0  0  0  0  0  0  0  0  0
    3.1907   -1.5163   -1.1153 H   0  0  0  0  0  0  0  0  0  0  0  0
    3.0757   -1.7575    0.6547 H   0  0  0  0  0  0  0  0  0  0  0  0
    1.0398   -2.0936   -0.4294 H   0  0  0  0  0  0  0  0  0  0  0  0
   -1.4393   -2.0586   -0.5739 H   0  0  0  0  0  0  0  0  0  0  0  0
   -4.7109    5.0448    0.6667 O   0  0  0  0  0  0  0  0  0  0  0  0
   -5.6552    4.1079    0.5339 C   0  0  0  0  0  0  0  0  0  0  0  0
   -5.4818    2.9446    0.2782 O   0  0  0  0  0  0  0  0  0  0  0  0
   -7.0490    4.7325    0.7606 C   0  0  0  0  0  0  0  0  0  0  0  0
   -7.2642    5.7262   -0.1189 F   0  0  0  0  0  0  0  0  0  0  0  0
   -7.9995    3.8087    0.6066 F   0  0  0  0  0  0  0  0  0  0  0  0
   -7.1345    5.2395    2.0029 F   0  0  0  0  0  0  0  0  0  0  0  0
  1  4  2  0  0  0  0
  2  1  1  0  0  0  0
  3  2  1  0  0  0  0
  4  5  1  0  0  0  0
  5 12  1  0  0  0  0
  6  7  1  0  0  0  0
  6  5  2  0  0  0  0
  8 13  1  0  0  0  0
  8  7  1  0  0  0  0
  8 15  1  0  0  0  0
  9  6  1  0  0  0  0
 10  9  2  0  0  0  0
 10  1  1  0  0  0  0
 11 18  1  0  0  0  0
 14  8  1  0  0  0  0
 16  9  1  0  0  0  0
 17 10  1  0  0  0  0
 19 18  1  0  0  0  0
 19 21  1  0  0  0  0
 20 19  2  0  0  0  0
 21 24  1  0  0  0  0
 22 21  1  0  0  0  0
 23 21  1  0  0  0  0
M  RAD  3   2   2   3   3   4   2
M  END
