Coordinates from ORCA-job 4-MeOPhN2+~CF3COO-_B3LYPG-6-31G_dp-CH-Scan-d09-49-n800
 OpenBabel11261919493D

 24 23  0  0  0  0  0  0  0  0999 V2000
   -2.2275    0.3198   -0.3874 C   0  0  0  0  0  0  0  0  0  0  0  0
   -3.5711    0.0901   -0.5988 N   0  0  0  0  0  0  0  0  0  0  0  0
   -4.5921   -0.2881   -0.8526 N   0  0  0  0  0  0  0  0  0  0  0  0
   -1.7301    1.6328   -0.2410 C   0  0  0  0  0  0  0  0  0  0  0  0
   -0.3554    1.7237   -0.0852 C   0  0  0  0  0  0  0  0  0  0  0  0
    0.4798    0.5899   -0.0646 C   0  0  0  0  0  0  0  0  0  0  0  0
    1.7918    0.8294    0.1022 O   0  0  0  0  0  0  0  0  0  0  0  0
    2.7111   -0.2614    0.1497 C   0  0  0  0  0  0  0  0  0  0  0  0
   -0.0669   -0.7080   -0.2130 C   0  0  0  0  0  0  0  0  0  0  0  0
   -1.4283   -0.8483   -0.3805 C   0  0  0  0  0  0  0  0  0  0  0  0
   -2.5546    2.7009   -0.1821 H   0  0  0  0  0  0  0  0  0  0  0  0
    0.1179    2.6936    0.0377 H   0  0  0  0  0  0  0  0  0  0  0  0
    3.6926    0.1877    0.2993 H   0  0  0  0  0  0  0  0  0  0  0  0
    2.7086   -0.8245   -0.7907 H   0  0  0  0  0  0  0  0  0  0  0  0
    2.4871   -0.9338    0.9854 H   0  0  0  0  0  0  0  0  0  0  0  0
    0.5611   -1.5895   -0.2000 H   0  0  0  0  0  0  0  0  0  0  0  0
   -1.8760   -1.8297   -0.5027 H   0  0  0  0  0  0  0  0  0  0  0  0
   -3.4382    3.7284   -0.0050 O   0  0  0  0  0  0  0  0  0  0  0  0
   -4.4894    3.1956    0.4738 C   0  0  0  0  0  0  0  0  0  0  0  0
   -4.7222    1.9938    0.6678 O   0  0  0  0  0  0  0  0  0  0  0  0
   -5.5954    4.2253    0.8272 C   0  0  0  0  0  0  0  0  0  0  0  0
   -6.0294    4.8528   -0.2891 F   0  0  0  0  0  0  0  0  0  0  0  0
   -6.6602    3.6482    1.4096 F   0  0  0  0  0  0  0  0  0  0  0  0
   -5.1280    5.1701    1.6702 F   0  0  0  0  0  0  0  0  0  0  0  0
  1 10  2  0  0  0  0
  1  4  1  0  0  0  0
  2  1  1  0  0  0  0
  3  2  1  0  0  0  0
  4 11  1  0  0  0  0
  4  5  2  0  0  0  0
  5  6  1  0  0  0  0
  5 12  1  0  0  0  0
  6  7  1  0  0  0  0
  7  8  1  0  0  0  0
  8 13  1  0  0  0  0
  8 15  1  0  0  0  0
  9 16  1  0  0  0  0
  9  6  2  0  0  0  0
 10  9  1  0  0  0  0
 14  8  1  0  0  0  0
 17 10  1  0  0  0  0
 18 19  2  0  0  0  0
 19 20  1  0  0  0  0
 19 21  1  0  0  0  0
 21 23  1  0  0  0  0
 21 24  1  0  0  0  0
 22 21  1  0  0  0  0
M  RAD  3   2   2   3   3  20   2
M  END
