Coordinates from ORCA-job 4-MeOPhN2+~CF3COO-_B3LYPG-6-31G_dp-CH-Scan-d09-49-n800
 OpenBabel11261919493D

 24 23  0  0  0  0  0  0  0  0999 V2000
   -2.3003    0.4816    0.3473 C   0  0  0  0  0  0  0  0  0  0  0  0
   -3.6997    0.3048    0.4189 N   0  0  0  0  0  0  0  0  0  0  0  0
   -4.5543   -0.4266    0.3125 N   0  0  0  0  0  0  0  0  0  0  0  0
   -1.6709    1.6254    0.8524 C   0  0  0  0  0  0  0  0  0  0  0  0
   -0.2924    1.7011    0.7722 C   0  0  0  0  0  0  0  0  0  0  0  0
    0.4566    0.6615    0.1880 C   0  0  0  0  0  0  0  0  0  0  0  0
    1.7901    0.8501    0.1578 O   0  0  0  0  0  0  0  0  0  0  0  0
    2.6213   -0.1481   -0.4324 C   0  0  0  0  0  0  0  0  0  0  0  0
   -0.1967   -0.4792   -0.3155 C   0  0  0  0  0  0  0  0  0  0  0  0
   -1.5783   -0.5714   -0.2311 C   0  0  0  0  0  0  0  0  0  0  0  0
   -2.2302    2.3602    1.2619 H   0  0  0  0  0  0  0  0  0  0  0  0
    0.2370    2.5678    1.1519 H   0  0  0  0  0  0  0  0  0  0  0  0
    3.6401    0.2311   -0.3514 H   0  0  0  0  0  0  0  0  0  0  0  0
    2.3716   -0.2996   -1.4887 H   0  0  0  0  0  0  0  0  0  0  0  0
    2.5439   -1.0996    0.1062 H   0  0  0  0  0  0  0  0  0  0  0  0
    0.3590   -1.2893   -0.7703 H   0  0  0  0  0  0  0  0  0  0  0  0
   -2.0986   -1.4413   -0.6158 H   0  0  0  0  0  0  0  0  0  0  0  0
   -4.3662    2.2046    1.0459 O   0  0  0  0  0  0  0  0  0  0  0  0
   -4.6156    2.7821   -0.0741 C   0  0  0  0  0  0  0  0  0  0  0  0
   -4.3286    2.4132   -1.2095 O   0  0  0  0  0  0  0  0  0  0  0  0
   -5.3408    4.1444    0.1226 C   0  0  0  0  0  0  0  0  0  0  0  0
   -5.7763    4.6527   -1.0392 F   0  0  0  0  0  0  0  0  0  0  0  0
   -6.3992    4.0319    0.9492 F   0  0  0  0  0  0  0  0  0  0  0  0
   -4.4860    5.0412    0.6713 F   0  0  0  0  0  0  0  0  0  0  0  0
  1  2  1  0  0  0  0
  1  4  2  0  0  0  0
  3  2  2  0  0  0  0
  4 11  1  0  0  0  0
  5  4  1  0  0  0  0
  5 12  1  0  0  0  0
  6  5  2  0  0  0  0
  7  6  1  0  0  0  0
  8 13  1  0  0  0  0
  8 15  1  0  0  0  0
  8  7  1  0  0  0  0
  9 10  2  0  0  0  0
  9  6  1  0  0  0  0
 10  1  1  0  0  0  0
 14  8  1  0  0  0  0
 16  9  1  0  0  0  0
 17 10  1  0  0  0  0
 19 21  1  0  0  0  0
 19 18  1  0  0  0  0
 20 19  2  0  0  0  0
 21 24  1  0  0  0  0
 21 23  1  0  0  0  0
 22 21  1  0  0  0  0
M  RAD  2   3   2  18   2
M  END
