Coordinates from ORCA-job 4-MeOPhN2+~CF3COO-_B3LYPG-6-31G_dp-CH-Scan-d09-49-n800
 OpenBabel11261919493D

 24 23  0  0  0  0  0  0  0  0999 V2000
   -1.5882    0.0852   -0.1358 C   0  0  0  0  0  0  0  0  0  0  0  0
   -2.9663    0.0552   -0.1656 N   0  0  0  0  0  0  0  0  0  0  0  0
   -4.0879    0.0849   -0.1790 N   0  0  0  0  0  0  0  0  0  0  0  0
   -1.0491    1.3659    0.1342 C   0  0  0  0  0  0  0  0  0  0  0  0
    0.3574    1.2980    0.1449 C   0  0  0  0  0  0  0  0  0  0  0  0
    1.0944    0.1252   -0.0808 C   0  0  0  0  0  0  0  0  0  0  0  0
    2.4436    0.2449   -0.0327 O   0  0  0  0  0  0  0  0  0  0  0  0
    3.2629   -0.8971   -0.2508 C   0  0  0  0  0  0  0  0  0  0  0  0
    0.4464   -1.1166   -0.3445 C   0  0  0  0  0  0  0  0  0  0  0  0
   -0.9275   -1.1497   -0.3752 C   0  0  0  0  0  0  0  0  0  0  0  0
   -3.6885    4.3474    0.7141 H   0  0  0  0  0  0  0  0  0  0  0  0
    0.9509    2.1927    0.3379 H   0  0  0  0  0  0  0  0  0  0  0  0
    4.2921   -0.5461   -0.1633 H   0  0  0  0  0  0  0  0  0  0  0  0
    3.1115   -1.3185   -1.2522 H   0  0  0  0  0  0  0  0  0  0  0  0
    3.0822   -1.6741    0.5018 H   0  0  0  0  0  0  0  0  0  0  0  0
    1.0133   -2.0223   -0.5191 H   0  0  0  0  0  0  0  0  0  0  0  0
   -1.4680   -2.0725   -0.5731 H   0  0  0  0  0  0  0  0  0  0  0  0
   -4.5227    4.8456    0.7629 O   0  0  0  0  0  0  0  0  0  0  0  0
   -5.5247    3.9948    0.5251 C   0  0  0  0  0  0  0  0  0  0  0  0
   -5.4298    2.8177    0.2911 O   0  0  0  0  0  0  0  0  0  0  0  0
   -6.8757    4.7388    0.6022 C   0  0  0  0  0  0  0  0  0  0  0  0
   -6.8938    5.7748   -0.2541 F   0  0  0  0  0  0  0  0  0  0  0  0
   -7.8765    3.9110    0.2968 F   0  0  0  0  0  0  0  0  0  0  0  0
   -7.0706    5.2135    1.8456 F   0  0  0  0  0  0  0  0  0  0  0  0
  1  4  2  0  0  0  0
  2  1  1  0  0  0  0
  3  2  1  0  0  0  0
  4  5  1  0  0  0  0
  5 12  1  0  0  0  0
  6  7  1  0  0  0  0
  6  5  2  0  0  0  0
  8 13  1  0  0  0  0
  8  7  1  0  0  0  0
  8 15  1  0  0  0  0
  9  6  1  0  0  0  0
 10  9  2  0  0  0  0
 10  1  1  0  0  0  0
 11 18  1  0  0  0  0
 14  8  1  0  0  0  0
 16  9  1  0  0  0  0
 17 10  1  0  0  0  0
 19 21  1  0  0  0  0
 19 18  1  0  0  0  0
 20 19  2  0  0  0  0
 21 24  1  0  0  0  0
 22 21  1  0  0  0  0
 23 21  1  0  0  0  0
M  RAD  3   2   2   3   3   4   2
M  END
