Coordinates from ORCA-job 4-MeOPhN2+~CF3COO-_B3LYPG-6-31G_dp-CH-Scan-d09-49-n800
 OpenBabel11261919493D

 24 23  0  0  0  0  0  0  0  0999 V2000
   -2.1276    0.0395   -0.2127 C   0  0  0  0  0  0  0  0  0  0  0  0
   -3.4739   -0.2215   -0.3106 N   0  0  0  0  0  0  0  0  0  0  0  0
   -4.5799   -0.3806   -0.3785 N   0  0  0  0  0  0  0  0  0  0  0  0
   -1.7745    1.3811    0.0731 C   0  0  0  0  0  0  0  0  0  0  0  0
   -0.3876    1.5423    0.1559 C   0  0  0  0  0  0  0  0  0  0  0  0
    0.5324    0.4936   -0.0234 C   0  0  0  0  0  0  0  0  0  0  0  0
    1.8354    0.8216    0.0935 O   0  0  0  0  0  0  0  0  0  0  0  0
    2.8361   -0.1811   -0.0631 C   0  0  0  0  0  0  0  0  0  0  0  0
    0.0902   -0.8264   -0.3098 C   0  0  0  0  0  0  0  0  0  0  0  0
   -1.2613   -1.0656   -0.4077 C   0  0  0  0  0  0  0  0  0  0  0  0
   -2.9350    2.7575    0.3119 H   0  0  0  0  0  0  0  0  0  0  0  0
    0.0400    2.5196    0.3724 H   0  0  0  0  0  0  0  0  0  0  0  0
    3.7892    0.3274    0.0839 H   0  0  0  0  0  0  0  0  0  0  0  0
    2.8114   -0.6186   -1.0678 H   0  0  0  0  0  0  0  0  0  0  0  0
    2.7294   -0.9742    0.6862 H   0  0  0  0  0  0  0  0  0  0  0  0
    0.7919   -1.6383   -0.4509 H   0  0  0  0  0  0  0  0  0  0  0  0
   -1.6431   -2.0590   -0.6257 H   0  0  0  0  0  0  0  0  0  0  0  0
   -3.5365    3.5961    0.4606 O   0  0  0  0  0  0  0  0  0  0  0  0
   -4.8049    3.2819    0.4243 C   0  0  0  0  0  0  0  0  0  0  0  0
   -5.3099    2.1900    0.2426 O   0  0  0  0  0  0  0  0  0  0  0  0
   -5.6846    4.5354    0.6445 C   0  0  0  0  0  0  0  0  0  0  0  0
   -5.4828    5.4323   -0.3419 F   0  0  0  0  0  0  0  0  0  0  0  0
   -6.9840    4.2140    0.6584 F   0  0  0  0  0  0  0  0  0  0  0  0
   -5.3850    5.1315    1.8152 F   0  0  0  0  0  0  0  0  0  0  0  0
  1  4  2  0  0  0  0
  2  1  1  0  0  0  0
  3  2  1  0  0  0  0
  4  5  1  0  0  0  0
  5 12  1  0  0  0  0
  6  7  1  0  0  0  0
  6  5  2  0  0  0  0
  8 13  1  0  0  0  0
  8  7  1  0  0  0  0
  8 15  1  0  0  0  0
  9  6  1  0  0  0  0
 10  9  2  0  0  0  0
 10  1  1  0  0  0  0
 11 18  1  0  0  0  0
 14  8  1  0  0  0  0
 16  9  1  0  0  0  0
 17 10  1  0  0  0  0
 19 18  1  0  0  0  0
 19 21  1  0  0  0  0
 20 19  2  0  0  0  0
 21 23  1  0  0  0  0
 21 24  1  0  0  0  0
 22 21  1  0  0  0  0
M  RAD  3   2   2   3   3   4   2
M  END
