Coordinates from ORCA-job 4-MeOPhN2+~CF3COO-_B3LYPG-6-31G_dp-CH-Scan-d09-49-n800
 OpenBabel11261919493D

 24 23  0  0  0  0  0  0  0  0999 V2000
   -1.7346    0.0558   -0.1522 C   0  0  0  0  0  0  0  0  0  0  0  0
   -3.1080   -0.0437   -0.1980 N   0  0  0  0  0  0  0  0  0  0  0  0
   -4.2288   -0.0752   -0.2312 N   0  0  0  0  0  0  0  0  0  0  0  0
   -1.2543    1.3592    0.1212 C   0  0  0  0  0  0  0  0  0  0  0  0
    0.1519    1.3605    0.1483 C   0  0  0  0  0  0  0  0  0  0  0  0
    0.9460    0.2228   -0.0665 C   0  0  0  0  0  0  0  0  0  0  0  0
    2.2863    0.4063   -0.0019 O   0  0  0  0  0  0  0  0  0  0  0  0
    3.1620   -0.6965   -0.2042 C   0  0  0  0  0  0  0  0  0  0  0  0
    0.3597   -1.0474   -0.3356 C   0  0  0  0  0  0  0  0  0  0  0  0
   -1.0109   -1.1450   -0.3819 C   0  0  0  0  0  0  0  0  0  0  0  0
   -3.4680    3.8984    0.6040 H   0  0  0  0  0  0  0  0  0  0  0  0
    0.6990    2.2826    0.3467 H   0  0  0  0  0  0  0  0  0  0  0  0
    4.1718   -0.2971   -0.1009 H   0  0  0  0  0  0  0  0  0  0  0  0
    3.0464   -1.1258   -1.2069 H   0  0  0  0  0  0  0  0  0  0  0  0
    3.0056   -1.4795    0.5476 H   0  0  0  0  0  0  0  0  0  0  0  0
    0.9698   -1.9260   -0.5023 H   0  0  0  0  0  0  0  0  0  0  0  0
   -1.5045   -2.0923   -0.5849 H   0  0  0  0  0  0  0  0  0  0  0  0
   -4.2282    4.5022    0.6822 O   0  0  0  0  0  0  0  0  0  0  0  0
   -5.3432    3.7964    0.4949 C   0  0  0  0  0  0  0  0  0  0  0  0
   -5.4253    2.6156    0.2686 O   0  0  0  0  0  0  0  0  0  0  0  0
   -6.5751    4.7200    0.6161 C   0  0  0  0  0  0  0  0  0  0  0  0
   -6.4919    5.7341   -0.2629 F   0  0  0  0  0  0  0  0  0  0  0  0
   -7.6947    4.0343    0.3748 F   0  0  0  0  0  0  0  0  0  0  0  0
   -6.6455    5.2390    1.8551 F   0  0  0  0  0  0  0  0  0  0  0  0
  1  4  2  0  0  0  0
  2  1  1  0  0  0  0
  3  2  1  0  0  0  0
  4  5  1  0  0  0  0
  5 12  1  0  0  0  0
  6  7  1  0  0  0  0
  6  5  2  0  0  0  0
  8 13  1  0  0  0  0
  8  7  1  0  0  0  0
  8 15  1  0  0  0  0
  9  6  1  0  0  0  0
 10  9  2  0  0  0  0
 10  1  1  0  0  0  0
 11 18  1  0  0  0  0
 14  8  1  0  0  0  0
 16  9  1  0  0  0  0
 17 10  1  0  0  0  0
 19 21  1  0  0  0  0
 19 18  1  0  0  0  0
 20 19  2  0  0  0  0
 21 24  1  0  0  0  0
 22 21  1  0  0  0  0
 23 21  1  0  0  0  0
M  RAD  3   2   2   3   3   4   2
M  END
