Coordinates from ORCA-job 4-MeOPhN2+~CF3COO-_B3LYPG-6-31G_dp-CH-Scan-d09-49-n800
 OpenBabel11261919503D

 24 23  0  0  0  0  0  0  0  0999 V2000
   -1.3874    0.1731   -0.2630 C   0  0  0  0  0  0  0  0  0  0  0  0
   -2.7626    0.2531   -0.3329 N   0  0  0  0  0  0  0  0  0  0  0  0
   -3.8769    0.3791   -0.3826 N   0  0  0  0  0  0  0  0  0  0  0  0
   -0.7586    1.4249   -0.0641 C   0  0  0  0  0  0  0  0  0  0  0  0
    0.6380    1.2507   -0.0053 C   0  0  0  0  0  0  0  0  0  0  0  0
    1.2857    0.0123   -0.1283 C   0  0  0  0  0  0  0  0  0  0  0  0
    2.6390    0.0314   -0.0474 O   0  0  0  0  0  0  0  0  0  0  0  0
    3.3713   -1.1826   -0.1618 C   0  0  0  0  0  0  0  0  0  0  0  0
    0.5495   -1.1923   -0.3272 C   0  0  0  0  0  0  0  0  0  0  0  0
   -0.8217   -1.1231   -0.3980 C   0  0  0  0  0  0  0  0  0  0  0  0
   -4.0288    4.8923    0.5449 H   0  0  0  0  0  0  0  0  0  0  0  0
    1.2947    2.1088    0.1450 H   0  0  0  0  0  0  0  0  0  0  0  0
    4.4223   -0.9067   -0.0646 H   0  0  0  0  0  0  0  0  0  0  0  0
    3.2140   -1.6600   -1.1371 H   0  0  0  0  0  0  0  0  0  0  0  0
    3.1095   -1.8893    0.6352 H   0  0  0  0  0  0  0  0  0  0  0  0
    1.0493   -2.1481   -0.4226 H   0  0  0  0  0  0  0  0  0  0  0  0
   -1.4276   -2.0134   -0.5492 H   0  0  0  0  0  0  0  0  0  0  0  0
   -4.9262    5.2405    0.6852 O   0  0  0  0  0  0  0  0  0  0  0  0
   -5.7830    4.2223    0.5497 C   0  0  0  0  0  0  0  0  0  0  0  0
   -5.5034    3.0788    0.3001 O   0  0  0  0  0  0  0  0  0  0  0  0
   -7.2284    4.7208    0.7640 C   0  0  0  0  0  0  0  0  0  0  0  0
   -7.5271    5.6832   -0.1254 F   0  0  0  0  0  0  0  0  0  0  0  0
   -8.0905    3.7137    0.6144 F   0  0  0  0  0  0  0  0  0  0  0  0
   -7.3657    5.2290    2.0013 F   0  0  0  0  0  0  0  0  0  0  0  0
  1  4  2  0  0  0  0
  2  1  1  0  0  0  0
  3  2  1  0  0  0  0
  4  5  1  0  0  0  0
  5 12  1  0  0  0  0
  6  7  1  0  0  0  0
  6  5  2  0  0  0  0
  8 13  1  0  0  0  0
  8  7  1  0  0  0  0
  8 15  1  0  0  0  0
  9  6  1  0  0  0  0
 10  9  2  0  0  0  0
 10  1  1  0  0  0  0
 11 18  1  0  0  0  0
 14  8  1  0  0  0  0
 16  9  1  0  0  0  0
 17 10  1  0  0  0  0
 19 18  1  0  0  0  0
 19 21  1  0  0  0  0
 20 19  2  0  0  0  0
 21 24  1  0  0  0  0
 22 21  1  0  0  0  0
 23 21  1  0  0  0  0
M  RAD  3   2   2   3   3   4   2
M  END
