Coordinates from ORCA-job 4-MeOPhN2+~CF3COO-_B3LYPG-6-31G_dp-CH-Scan-d09-49-n800
 OpenBabel11261919493D

 24 23  0  0  0  0  0  0  0  0999 V2000
   -2.0574    0.0378   -0.2043 C   0  0  0  0  0  0  0  0  0  0  0  0
   -3.4094   -0.1969   -0.2941 N   0  0  0  0  0  0  0  0  0  0  0  0
   -4.5182   -0.3414   -0.3572 N   0  0  0  0  0  0  0  0  0  0  0  0
   -1.6857    1.3739    0.0847 C   0  0  0  0  0  0  0  0  0  0  0  0
   -0.2933    1.5080    0.1586 C   0  0  0  0  0  0  0  0  0  0  0  0
    0.6067    0.4445   -0.0301 C   0  0  0  0  0  0  0  0  0  0  0  0
    1.9175    0.7486    0.0803 O   0  0  0  0  0  0  0  0  0  0  0  0
    2.8982   -0.2713   -0.0857 C   0  0  0  0  0  0  0  0  0  0  0  0
    0.1413   -0.8679   -0.3191 C   0  0  0  0  0  0  0  0  0  0  0  0
   -1.2140   -1.0844   -0.4096 C   0  0  0  0  0  0  0  0  0  0  0  0
   -3.0393    2.9631    0.3665 H   0  0  0  0  0  0  0  0  0  0  0  0
    0.1562    2.4756    0.3759 H   0  0  0  0  0  0  0  0  0  0  0  0
    3.8616    0.2185    0.0583 H   0  0  0  0  0  0  0  0  0  0  0  0
    2.8609   -0.7046   -1.0920 H   0  0  0  0  0  0  0  0  0  0  0  0
    2.7814   -1.0659    0.6606 H   0  0  0  0  0  0  0  0  0  0  0  0
    0.8292   -1.6904   -0.4674 H   0  0  0  0  0  0  0  0  0  0  0  0
   -1.6141   -2.0705   -0.6293 H   0  0  0  0  0  0  0  0  0  0  0  0
   -3.6497    3.7508    0.5057 O   0  0  0  0  0  0  0  0  0  0  0  0
   -4.9072    3.3697    0.4380 C   0  0  0  0  0  0  0  0  0  0  0  0
   -5.3427    2.2555    0.2409 O   0  0  0  0  0  0  0  0  0  0  0  0
   -5.8467    4.5806    0.6422 C   0  0  0  0  0  0  0  0  0  0  0  0
   -5.6699    5.4825   -0.3432 F   0  0  0  0  0  0  0  0  0  0  0  0
   -7.1267    4.1931    0.6347 F   0  0  0  0  0  0  0  0  0  0  0  0
   -5.5935    5.1896    1.8160 F   0  0  0  0  0  0  0  0  0  0  0  0
  1  4  2  0  0  0  0
  2  1  1  0  0  0  0
  3  2  1  0  0  0  0
  4  5  1  0  0  0  0
  5 12  1  0  0  0  0
  6  7  1  0  0  0  0
  6  5  2  0  0  0  0
  8 13  1  0  0  0  0
  8  7  1  0  0  0  0
  8 15  1  0  0  0  0
  9  6  1  0  0  0  0
 10  9  2  0  0  0  0
 10  1  1  0  0  0  0
 11 18  1  0  0  0  0
 14  8  1  0  0  0  0
 16  9  1  0  0  0  0
 17 10  1  0  0  0  0
 19 18  1  0  0  0  0
 19 21  1  0  0  0  0
 20 19  2  0  0  0  0
 21 24  1  0  0  0  0
 22 21  1  0  0  0  0
 23 21  1  0  0  0  0
M  RAD  3   2   2   3   3   4   2
M  END
