Coordinates from ORCA-job 4-MeOPhN2+~CF3COO-_B3LYPG-6-31G_dp-CH-Scan-d09-49-n800
 OpenBabel11261919493D

 24 23  0  0  0  0  0  0  0  0999 V2000
   -2.1310    0.0402   -0.2141 C   0  0  0  0  0  0  0  0  0  0  0  0
   -3.4771   -0.2217   -0.3128 N   0  0  0  0  0  0  0  0  0  0  0  0
   -4.5829   -0.3808   -0.3811 N   0  0  0  0  0  0  0  0  0  0  0  0
   -1.7784    1.3819    0.0713 C   0  0  0  0  0  0  0  0  0  0  0  0
   -0.3918    1.5443    0.1550 C   0  0  0  0  0  0  0  0  0  0  0  0
    0.5289    0.4960   -0.0232 C   0  0  0  0  0  0  0  0  0  0  0  0
    1.8316    0.8249    0.0945 O   0  0  0  0  0  0  0  0  0  0  0  0
    2.8331   -0.1771   -0.0611 C   0  0  0  0  0  0  0  0  0  0  0  0
    0.0876   -0.8243   -0.3093 C   0  0  0  0  0  0  0  0  0  0  0  0
   -1.2637   -1.0643   -0.4080 C   0  0  0  0  0  0  0  0  0  0  0  0
   -2.9291    2.7472    0.3074 H   0  0  0  0  0  0  0  0  0  0  0  0
    0.0346    2.5221    0.3713 H   0  0  0  0  0  0  0  0  0  0  0  0
    3.7856    0.3320    0.0863 H   0  0  0  0  0  0  0  0  0  0  0  0
    2.8092   -0.6151   -1.0656 H   0  0  0  0  0  0  0  0  0  0  0  0
    2.7263   -0.9699    0.6885 H   0  0  0  0  0  0  0  0  0  0  0  0
    0.7898   -1.6358   -0.4496 H   0  0  0  0  0  0  0  0  0  0  0  0
   -1.6448   -2.0580   -0.6258 H   0  0  0  0  0  0  0  0  0  0  0  0
   -3.5311    3.5892    0.4563 O   0  0  0  0  0  0  0  0  0  0  0  0
   -4.7997    3.2774    0.4244 C   0  0  0  0  0  0  0  0  0  0  0  0
   -5.3078    2.1861    0.2462 O   0  0  0  0  0  0  0  0  0  0  0  0
   -5.6770    4.5327    0.6452 C   0  0  0  0  0  0  0  0  0  0  0  0
   -5.4763    5.4282   -0.3427 F   0  0  0  0  0  0  0  0  0  0  0  0
   -6.9771    4.2136    0.6628 F   0  0  0  0  0  0  0  0  0  0  0  0
   -5.3736    5.1298    1.8145 F   0  0  0  0  0  0  0  0  0  0  0  0
  1  4  2  0  0  0  0
  2  1  1  0  0  0  0
  3  2  1  0  0  0  0
  4  5  1  0  0  0  0
  5 12  1  0  0  0  0
  6  7  1  0  0  0  0
  6  5  2  0  0  0  0
  8 13  1  0  0  0  0
  8  7  1  0  0  0  0
  8 15  1  0  0  0  0
  9  6  1  0  0  0  0
 10  9  2  0  0  0  0
 10  1  1  0  0  0  0
 11 18  1  0  0  0  0
 14  8  1  0  0  0  0
 16  9  1  0  0  0  0
 17 10  1  0  0  0  0
 19 18  1  0  0  0  0
 19 21  1  0  0  0  0
 20 19  2  0  0  0  0
 21 23  1  0  0  0  0
 21 24  1  0  0  0  0
 22 21  1  0  0  0  0
M  RAD  3   2   2   3   3   4   2
M  END
