Coordinates from ORCA-job 4-MeOPhN2+~CF3COO-_B3LYPG-6-31G_dp-CH-Scan-d09-49-n800
 OpenBabel11261919493D

 24 23  0  0  0  0  0  0  0  0999 V2000
   -2.1555    0.0442   -0.2201 C   0  0  0  0  0  0  0  0  0  0  0  0
   -3.5002   -0.2233   -0.3225 N   0  0  0  0  0  0  0  0  0  0  0  0
   -4.6061   -0.3797   -0.3919 N   0  0  0  0  0  0  0  0  0  0  0  0
   -1.8057    1.3869    0.0619 C   0  0  0  0  0  0  0  0  0  0  0  0
   -0.4221    1.5588    0.1503 C   0  0  0  0  0  0  0  0  0  0  0  0
    0.5042    0.5137   -0.0216 C   0  0  0  0  0  0  0  0  0  0  0  0
    1.8040    0.8494    0.0992 O   0  0  0  0  0  0  0  0  0  0  0  0
    2.8114   -0.1482   -0.0503 C   0  0  0  0  0  0  0  0  0  0  0  0
    0.0689   -0.8087   -0.3048 C   0  0  0  0  0  0  0  0  0  0  0  0
   -1.2813   -1.0550   -0.4073 C   0  0  0  0  0  0  0  0  0  0  0  0
   -2.8826    2.6657    0.2794 H   0  0  0  0  0  0  0  0  0  0  0  0
   -0.0037    2.5401    0.3650 H   0  0  0  0  0  0  0  0  0  0  0  0
    3.7607    0.3665    0.0982 H   0  0  0  0  0  0  0  0  0  0  0  0
    2.7923   -0.5892   -1.0536 H   0  0  0  0  0  0  0  0  0  0  0  0
    2.7062   -0.9389    0.7017 H   0  0  0  0  0  0  0  0  0  0  0  0
    0.7748   -1.6178   -0.4403 H   0  0  0  0  0  0  0  0  0  0  0  0
   -1.6570   -2.0511   -0.6231 H   0  0  0  0  0  0  0  0  0  0  0  0
   -3.4936    3.5370    0.4326 O   0  0  0  0  0  0  0  0  0  0  0  0
   -4.7625    3.2461    0.4206 C   0  0  0  0  0  0  0  0  0  0  0  0
   -5.2945    2.1613    0.2550 O   0  0  0  0  0  0  0  0  0  0  0  0
   -5.6227    4.5128    0.6486 C   0  0  0  0  0  0  0  0  0  0  0  0
   -5.4212    5.4063   -0.3419 F   0  0  0  0  0  0  0  0  0  0  0  0
   -6.9279    4.2136    0.6804 F   0  0  0  0  0  0  0  0  0  0  0  0
   -5.3002    5.1082    1.8144 F   0  0  0  0  0  0  0  0  0  0  0  0
  1  4  2  0  0  0  0
  2  1  1  0  0  0  0
  3  2  1  0  0  0  0
  4  5  1  0  0  0  0
  5 12  1  0  0  0  0
  6  7  1  0  0  0  0
  6  5  2  0  0  0  0
  8 13  1  0  0  0  0
  8  7  1  0  0  0  0
  8 15  1  0  0  0  0
  9  6  1  0  0  0  0
 10  9  2  0  0  0  0
 10  1  1  0  0  0  0
 11 18  1  0  0  0  0
 14  8  1  0  0  0  0
 16  9  1  0  0  0  0
 17 10  1  0  0  0  0
 19 18  1  0  0  0  0
 19 21  1  0  0  0  0
 20 19  2  0  0  0  0
 21 23  1  0  0  0  0
 21 24  1  0  0  0  0
 22 21  1  0  0  0  0
M  RAD  3   2   2   3   3   4   2
M  END
