Coordinates from ORCA-job 4-MeOPhN2+~CF3COO-_B3LYPG-6-31G_dp-CH-Scan-d09-49-n800
 OpenBabel11261919493D

 24 23  0  0  0  0  0  0  0  0999 V2000
   -2.1666    0.0465   -0.2212 C   0  0  0  0  0  0  0  0  0  0  0  0
   -3.5112   -0.2219   -0.3242 N   0  0  0  0  0  0  0  0  0  0  0  0
   -4.6179   -0.3718   -0.3924 N   0  0  0  0  0  0  0  0  0  0  0  0
   -1.8166    1.3889    0.0599 C   0  0  0  0  0  0  0  0  0  0  0  0
   -0.4347    1.5657    0.1499 C   0  0  0  0  0  0  0  0  0  0  0  0
    0.4936    0.5219   -0.0204 C   0  0  0  0  0  0  0  0  0  0  0  0
    1.7922    0.8601    0.1012 O   0  0  0  0  0  0  0  0  0  0  0  0
    2.8020   -0.1355   -0.0470 C   0  0  0  0  0  0  0  0  0  0  0  0
    0.0604   -0.8010   -0.3028 C   0  0  0  0  0  0  0  0  0  0  0  0
   -1.2896   -1.0499   -0.4063 C   0  0  0  0  0  0  0  0  0  0  0  0
   -2.8567    2.6211    0.2684 H   0  0  0  0  0  0  0  0  0  0  0  0
   -0.0204    2.5486    0.3641 H   0  0  0  0  0  0  0  0  0  0  0  0
    3.7499    0.3816    0.1018 H   0  0  0  0  0  0  0  0  0  0  0  0
    2.7842   -0.5770   -1.0499 H   0  0  0  0  0  0  0  0  0  0  0  0
    2.6978   -0.9257    0.7057 H   0  0  0  0  0  0  0  0  0  0  0  0
    0.7676   -1.6092   -0.4370 H   0  0  0  0  0  0  0  0  0  0  0  0
   -1.6632   -2.0468   -0.6216 H   0  0  0  0  0  0  0  0  0  0  0  0
   -3.4778    3.5117    0.4245 O   0  0  0  0  0  0  0  0  0  0  0  0
   -4.7458    3.2315    0.4175 C   0  0  0  0  0  0  0  0  0  0  0  0
   -5.2899    2.1504    0.2542 O   0  0  0  0  0  0  0  0  0  0  0  0
   -5.5991    4.5030    0.6487 C   0  0  0  0  0  0  0  0  0  0  0  0
   -5.3952    5.3971   -0.3412 F   0  0  0  0  0  0  0  0  0  0  0  0
   -6.9069    4.2132    0.6838 F   0  0  0  0  0  0  0  0  0  0  0  0
   -5.2706    5.0961    1.8144 F   0  0  0  0  0  0  0  0  0  0  0  0
  1  4  2  0  0  0  0
  2  1  1  0  0  0  0
  3  2  1  0  0  0  0
  4  5  1  0  0  0  0
  5 12  1  0  0  0  0
  6  7  1  0  0  0  0
  6  5  2  0  0  0  0
  8  7  1  0  0  0  0
  8 13  1  0  0  0  0
  8 15  1  0  0  0  0
  9  6  1  0  0  0  0
 10  9  2  0  0  0  0
 10  1  1  0  0  0  0
 11 18  1  0  0  0  0
 14  8  1  0  0  0  0
 16  9  1  0  0  0  0
 17 10  1  0  0  0  0
 19 18  1  0  0  0  0
 19 21  1  0  0  0  0
 20 19  2  0  0  0  0
 21 23  1  0  0  0  0
 21 24  1  0  0  0  0
 22 21  1  0  0  0  0
M  RAD  3   2   2   3   3   4   2
M  END
