Coordinates from ORCA-job 4-MeOPhN2+~CF3COO-_B3LYPG-6-31G_dp-CH-Scan-d09-49-n800
 OpenBabel11261919493D

 24 23  0  0  0  0  0  0  0  0999 V2000
   -2.0674    0.0375   -0.2045 C   0  0  0  0  0  0  0  0  0  0  0  0
   -3.4186   -0.2013   -0.2951 N   0  0  0  0  0  0  0  0  0  0  0  0
   -4.5269   -0.3486   -0.3587 N   0  0  0  0  0  0  0  0  0  0  0  0
   -1.6988    1.3744    0.0848 C   0  0  0  0  0  0  0  0  0  0  0  0
   -0.3070    1.5124    0.1596 C   0  0  0  0  0  0  0  0  0  0  0  0
    0.5960    0.4514   -0.0289 C   0  0  0  0  0  0  0  0  0  0  0  0
    1.9058    0.7591    0.0822 O   0  0  0  0  0  0  0  0  0  0  0  0
    2.8895   -0.2580   -0.0835 C   0  0  0  0  0  0  0  0  0  0  0  0
    0.1342   -0.8621   -0.3181 C   0  0  0  0  0  0  0  0  0  0  0  0
   -1.2206   -1.0820   -0.4093 C   0  0  0  0  0  0  0  0  0  0  0  0
   -3.0255    2.9343    0.3614 H   0  0  0  0  0  0  0  0  0  0  0  0
    0.1394    2.4813    0.3772 H   0  0  0  0  0  0  0  0  0  0  0  0
    3.8514    0.2345    0.0610 H   0  0  0  0  0  0  0  0  0  0  0  0
    2.8537   -0.6913   -1.0898 H   0  0  0  0  0  0  0  0  0  0  0  0
    2.7745   -1.0529    0.6628 H   0  0  0  0  0  0  0  0  0  0  0  0
    0.8242   -1.6828   -0.4662 H   0  0  0  0  0  0  0  0  0  0  0  0
   -1.6180   -2.0691   -0.6292 H   0  0  0  0  0  0  0  0  0  0  0  0
   -3.6333    3.7281    0.5018 O   0  0  0  0  0  0  0  0  0  0  0  0
   -4.8929    3.3572    0.4357 C   0  0  0  0  0  0  0  0  0  0  0  0
   -5.3385    2.2465    0.2386 O   0  0  0  0  0  0  0  0  0  0  0  0
   -5.8234    4.5749    0.6415 C   0  0  0  0  0  0  0  0  0  0  0  0
   -5.6415    5.4760   -0.3438 F   0  0  0  0  0  0  0  0  0  0  0  0
   -7.1065    4.1973    0.6356 F   0  0  0  0  0  0  0  0  0  0  0  0
   -5.5644    5.1819    1.8152 F   0  0  0  0  0  0  0  0  0  0  0  0
  1  4  2  0  0  0  0
  2  1  1  0  0  0  0
  3  2  1  0  0  0  0
  4  5  1  0  0  0  0
  5 12  1  0  0  0  0
  6  7  1  0  0  0  0
  6  5  2  0  0  0  0
  8 13  1  0  0  0  0
  8  7  1  0  0  0  0
  8 15  1  0  0  0  0
  9  6  1  0  0  0  0
 10  9  2  0  0  0  0
 10  1  1  0  0  0  0
 11 18  1  0  0  0  0
 14  8  1  0  0  0  0
 16  9  1  0  0  0  0
 17 10  1  0  0  0  0
 19 18  1  0  0  0  0
 19 21  1  0  0  0  0
 20 19  2  0  0  0  0
 21 24  1  0  0  0  0
 22 21  1  0  0  0  0
 23 21  1  0  0  0  0
M  RAD  3   2   2   3   3   4   2
M  END
