Coordinates from ORCA-job 4-MeOPhN2+~CF3COO-_B3LYPG-6-31G_dp-CH-Scan-d09-49-n800
 OpenBabel11261919493D

 24 23  0  0  0  0  0  0  0  0999 V2000
   -1.7643    0.0540   -0.1567 C   0  0  0  0  0  0  0  0  0  0  0  0
   -3.1364   -0.0578   -0.2069 N   0  0  0  0  0  0  0  0  0  0  0  0
   -4.2566   -0.1021   -0.2401 N   0  0  0  0  0  0  0  0  0  0  0  0
   -1.2939    1.3608    0.1177 C   0  0  0  0  0  0  0  0  0  0  0  0
    0.1116    1.3743    0.1489 C   0  0  0  0  0  0  0  0  0  0  0  0
    0.9157    0.2429   -0.0632 C   0  0  0  0  0  0  0  0  0  0  0  0
    2.2538    0.4374    0.0053 O   0  0  0  0  0  0  0  0  0  0  0  0
    3.1393   -0.6584   -0.1937 C   0  0  0  0  0  0  0  0  0  0  0  0
    0.3401   -1.0318   -0.3336 C   0  0  0  0  0  0  0  0  0  0  0  0
   -1.0296   -1.1404   -0.3838 C   0  0  0  0  0  0  0  0  0  0  0  0
   -3.4242    3.8160    0.5777 H   0  0  0  0  0  0  0  0  0  0  0  0
    0.6503    2.3010    0.3485 H   0  0  0  0  0  0  0  0  0  0  0  0
    4.1453   -0.2507   -0.0871 H   0  0  0  0  0  0  0  0  0  0  0  0
    3.0306   -1.0887   -1.1967 H   0  0  0  0  0  0  0  0  0  0  0  0
    2.9866   -1.4424    0.5578 H   0  0  0  0  0  0  0  0  0  0  0  0
    0.9576   -1.9056   -0.4983 H   0  0  0  0  0  0  0  0  0  0  0  0
   -1.5148   -2.0917   -0.5879 H   0  0  0  0  0  0  0  0  0  0  0  0
   -4.1708    4.4368    0.6619 O   0  0  0  0  0  0  0  0  0  0  0  0
   -5.3030    3.7571    0.4887 C   0  0  0  0  0  0  0  0  0  0  0  0
   -5.4166    2.5777    0.2671 O   0  0  0  0  0  0  0  0  0  0  0  0
   -6.5121    4.7092    0.6195 C   0  0  0  0  0  0  0  0  0  0  0  0
   -6.4153    5.7181   -0.2643 F   0  0  0  0  0  0  0  0  0  0  0  0
   -7.6498    4.0484    0.3925 F   0  0  0  0  0  0  0  0  0  0  0  0
   -6.5580    5.2343    1.8571 F   0  0  0  0  0  0  0  0  0  0  0  0
  1  4  2  0  0  0  0
  2  1  1  0  0  0  0
  3  2  1  0  0  0  0
  4  5  1  0  0  0  0
  5 12  1  0  0  0  0
  6  7  1  0  0  0  0
  6  5  2  0  0  0  0
  8 13  1  0  0  0  0
  8  7  1  0  0  0  0
  8 15  1  0  0  0  0
  9  6  1  0  0  0  0
 10  9  2  0  0  0  0
 10  1  1  0  0  0  0
 11 18  1  0  0  0  0
 14  8  1  0  0  0  0
 16  9  1  0  0  0  0
 17 10  1  0  0  0  0
 19 21  1  0  0  0  0
 19 18  1  0  0  0  0
 20 19  2  0  0  0  0
 21 24  1  0  0  0  0
 22 21  1  0  0  0  0
 23 21  1  0  0  0  0
M  RAD  3   2   2   3   3   4   2
M  END
