Coordinates from ORCA-job 4-MeOPhN2+~CF3COO-_B3LYPG-6-31G_dp-CH-Scan-d09-49-n800
 OpenBabel11261919493D

 24 23  0  0  0  0  0  0  0  0999 V2000
   -2.2633    0.4755    0.3530 C   0  0  0  0  0  0  0  0  0  0  0  0
   -3.6589    0.3187    0.4374 N   0  0  0  0  0  0  0  0  0  0  0  0
   -4.5576   -0.3561    0.3560 N   0  0  0  0  0  0  0  0  0  0  0  0
   -1.6149    1.5986    0.8704 C   0  0  0  0  0  0  0  0  0  0  0  0
   -0.2407    1.6748    0.7929 C   0  0  0  0  0  0  0  0  0  0  0  0
    0.4918    0.6335    0.1864 C   0  0  0  0  0  0  0  0  0  0  0  0
    1.8265    0.8067    0.1503 O   0  0  0  0  0  0  0  0  0  0  0  0
    2.6442   -0.1881   -0.4648 C   0  0  0  0  0  0  0  0  0  0  0  0
   -0.1754   -0.4943   -0.3334 C   0  0  0  0  0  0  0  0  0  0  0  0
   -1.5566   -0.5786   -0.2468 C   0  0  0  0  0  0  0  0  0  0  0  0
   -2.4013    2.4984    1.3834 H   0  0  0  0  0  0  0  0  0  0  0  0
    0.3000    2.5296    1.1826 H   0  0  0  0  0  0  0  0  0  0  0  0
    3.6667    0.1811   -0.3856 H   0  0  0  0  0  0  0  0  0  0  0  0
    2.3841   -0.3183   -1.5214 H   0  0  0  0  0  0  0  0  0  0  0  0
    2.5630   -1.1482    0.0577 H   0  0  0  0  0  0  0  0  0  0  0  0
    0.3729   -1.3013   -0.8023 H   0  0  0  0  0  0  0  0  0  0  0  0
   -2.0856   -1.4388   -0.6424 H   0  0  0  0  0  0  0  0  0  0  0  0
   -4.3206    2.3240    1.1175 O   0  0  0  0  0  0  0  0  0  0  0  0
   -4.5970    2.8295   -0.0278 C   0  0  0  0  0  0  0  0  0  0  0  0
   -4.2952    2.4094   -1.1439 O   0  0  0  0  0  0  0  0  0  0  0  0
   -5.4116    4.1493    0.0905 C   0  0  0  0  0  0  0  0  0  0  0  0
   -5.7284    4.6583   -1.1094 F   0  0  0  0  0  0  0  0  0  0  0  0
   -6.5599    3.9507    0.7712 F   0  0  0  0  0  0  0  0  0  0  0  0
   -4.6967    5.0840    0.7589 F   0  0  0  0  0  0  0  0  0  0  0  0
  1  2  1  0  0  0  0
  1  4  2  0  0  0  0
  3  2  2  0  0  0  0
  4 11  1  0  0  0  0
  5  4  1  0  0  0  0
  5 12  1  0  0  0  0
  6  5  2  0  0  0  0
  7  6  1  0  0  0  0
  8 13  1  0  0  0  0
  8 15  1  0  0  0  0
  8  7  1  0  0  0  0
  9 10  2  0  0  0  0
  9  6  1  0  0  0  0
 10  1  1  0  0  0  0
 14  8  1  0  0  0  0
 16  9  1  0  0  0  0
 17 10  1  0  0  0  0
 19 21  1  0  0  0  0
 19 18  1  0  0  0  0
 20 19  2  0  0  0  0
 21 24  1  0  0  0  0
 21 23  1  0  0  0  0
 22 21  1  0  0  0  0
M  RAD  2   3   2  18   2
M  END
