Coordinates from ORCA-job 4-MeOPhN2+~CF3COO-_B3LYPG-6-31G_dp-CH-Scan-d09-49-n800
 OpenBabel11261919493D

 24 23  0  0  0  0  0  0  0  0999 V2000
   -1.6078    0.0794   -0.1381 C   0  0  0  0  0  0  0  0  0  0  0  0
   -2.9855    0.0397   -0.1692 N   0  0  0  0  0  0  0  0  0  0  0  0
   -4.1073    0.0613   -0.1841 N   0  0  0  0  0  0  0  0  0  0  0  0
   -1.0774    1.3642    0.1298 C   0  0  0  0  0  0  0  0  0  0  0  0
    0.3293    1.3065    0.1418 C   0  0  0  0  0  0  0  0  0  0  0  0
    1.0748    0.1384   -0.0807 C   0  0  0  0  0  0  0  0  0  0  0  0
    2.4230    0.2675   -0.0314 O   0  0  0  0  0  0  0  0  0  0  0  0
    3.2505   -0.8693   -0.2454 C   0  0  0  0  0  0  0  0  0  0  0  0
    0.4357   -1.1084   -0.3425 C   0  0  0  0  0  0  0  0  0  0  0  0
   -0.9380   -1.1512   -0.3744 C   0  0  0  0  0  0  0  0  0  0  0  0
   -3.6584    4.2821    0.7113 H   0  0  0  0  0  0  0  0  0  0  0  0
    0.9163    2.2058    0.3335 H   0  0  0  0  0  0  0  0  0  0  0  0
    4.2771   -0.5110   -0.1569 H   0  0  0  0  0  0  0  0  0  0  0  0
    3.1037   -1.2941   -1.2461 H   0  0  0  0  0  0  0  0  0  0  0  0
    3.0738   -1.6457    0.5088 H   0  0  0  0  0  0  0  0  0  0  0  0
    1.0090   -2.0104   -0.5147 H   0  0  0  0  0  0  0  0  0  0  0  0
   -1.4717   -2.0781   -0.5711 H   0  0  0  0  0  0  0  0  0  0  0  0
   -4.4821    4.7976    0.7599 O   0  0  0  0  0  0  0  0  0  0  0  0
   -5.5015    3.9680    0.5225 C   0  0  0  0  0  0  0  0  0  0  0  0
   -5.4316    2.7894    0.2872 O   0  0  0  0  0  0  0  0  0  0  0  0
   -6.8368    4.7397    0.6016 C   0  0  0  0  0  0  0  0  0  0  0  0
   -6.8346    5.7761   -0.2544 F   0  0  0  0  0  0  0  0  0  0  0  0
   -7.8550    3.9328    0.2973 F   0  0  0  0  0  0  0  0  0  0  0  0
   -7.0203    5.2180    1.8453 F   0  0  0  0  0  0  0  0  0  0  0  0
  1  4  2  0  0  0  0
  2  1  1  0  0  0  0
  3  2  1  0  0  0  0
  4  5  1  0  0  0  0
  5 12  1  0  0  0  0
  6  7  1  0  0  0  0
  6  5  2  0  0  0  0
  8 13  1  0  0  0  0
  8  7  1  0  0  0  0
  8 15  1  0  0  0  0
  9  6  1  0  0  0  0
 10  9  2  0  0  0  0
 10  1  1  0  0  0  0
 11 18  1  0  0  0  0
 14  8  1  0  0  0  0
 16  9  1  0  0  0  0
 17 10  1  0  0  0  0
 19 21  1  0  0  0  0
 19 18  1  0  0  0  0
 20 19  2  0  0  0  0
 21 24  1  0  0  0  0
 22 21  1  0  0  0  0
 23 21  1  0  0  0  0
M  RAD  3   2   2   3   3   4   2
M  END
