Coordinates from ORCA-job 4-MeOPhN2+~CF3COO-_B3LYPG-6-31G_dp-CH-Scan-d09-49-n800
 OpenBabel11261919493D

 24 23  0  0  0  0  0  0  0  0999 V2000
   -1.5518    0.1106   -0.2765 C   0  0  0  0  0  0  0  0  0  0  0  0
   -2.9279    0.1039   -0.3626 N   0  0  0  0  0  0  0  0  0  0  0  0
   -4.0472    0.1553   -0.4254 N   0  0  0  0  0  0  0  0  0  0  0  0
   -1.0011    1.3946   -0.0504 C   0  0  0  0  0  0  0  0  0  0  0  0
    0.4023    1.3042    0.0241 C   0  0  0  0  0  0  0  0  0  0  0  0
    1.1257    0.1089   -0.1070 C   0  0  0  0  0  0  0  0  0  0  0  0
    2.4737    0.2081   -0.0046 O   0  0  0  0  0  0  0  0  0  0  0  0
    3.2788   -0.9591   -0.1177 C   0  0  0  0  0  0  0  0  0  0  0  0
    0.4663   -1.1340   -0.3350 C   0  0  0  0  0  0  0  0  0  0  0  0
   -0.9054   -1.1461   -0.4241 C   0  0  0  0  0  0  0  0  0  0  0  0
   -3.7451    4.4748    0.4795 H   0  0  0  0  0  0  0  0  0  0  0  0
    1.0040    2.1979    0.1957 H   0  0  0  0  0  0  0  0  0  0  0  0
    4.3094   -0.6228    0.0037 H   0  0  0  0  0  0  0  0  0  0  0  0
    3.1690   -1.4327   -1.1011 H   0  0  0  0  0  0  0  0  0  0  0  0
    3.0434   -1.6893    0.6660 H   0  0  0  0  0  0  0  0  0  0  0  0
    1.0239   -2.0564   -0.4388 H   0  0  0  0  0  0  0  0  0  0  0  0
   -1.4542   -2.0686   -0.5986 H   0  0  0  0  0  0  0  0  0  0  0  0
   -4.5881    4.9338    0.6374 O   0  0  0  0  0  0  0  0  0  0  0  0
   -5.5722    4.0375    0.5197 C   0  0  0  0  0  0  0  0  0  0  0  0
   -5.4526    2.8675    0.2628 O   0  0  0  0  0  0  0  0  0  0  0  0
   -6.9354    4.7202    0.7649 C   0  0  0  0  0  0  0  0  0  0  0  0
   -7.1267    5.7125   -0.1222 F   0  0  0  0  0  0  0  0  0  0  0  0
   -7.9250    3.8341    0.6382 F   0  0  0  0  0  0  0  0  0  0  0  0
   -6.9784    5.2437    2.0024 F   0  0  0  0  0  0  0  0  0  0  0  0
  1  4  2  0  0  0  0
  2  1  1  0  0  0  0
  3  2  1  0  0  0  0
  4  5  1  0  0  0  0
  5 12  1  0  0  0  0
  6  7  1  0  0  0  0
  6  5  2  0  0  0  0
  8  7  1  0  0  0  0
  8 13  1  0  0  0  0
  8 15  1  0  0  0  0
  9  6  1  0  0  0  0
 10  9  2  0  0  0  0
 10  1  1  0  0  0  0
 11 18  1  0  0  0  0
 14  8  1  0  0  0  0
 16  9  1  0  0  0  0
 17 10  1  0  0  0  0
 19 18  1  0  0  0  0
 19 21  1  0  0  0  0
 20 19  2  0  0  0  0
 21 24  1  0  0  0  0
 22 21  1  0  0  0  0
 23 21  1  0  0  0  0
M  RAD  3   2   2   3   3   4   2
M  END
