Coordinates from ORCA-job 4-MeOPhN2+~CF3COO-_B3LYPG-6-31G_dp-CH-Scan-d09-49-n800
 OpenBabel11261919493D

 24 23  0  0  0  0  0  0  0  0999 V2000
   -1.9373    0.0415   -0.2000 C   0  0  0  0  0  0  0  0  0  0  0  0
   -3.2986   -0.1435   -0.2776 N   0  0  0  0  0  0  0  0  0  0  0  0
   -4.4126   -0.2487   -0.3415 N   0  0  0  0  0  0  0  0  0  0  0  0
   -1.5274    1.3675    0.0805 C   0  0  0  0  0  0  0  0  0  0  0  0
   -0.1287    1.4544    0.1442 C   0  0  0  0  0  0  0  0  0  0  0  0
    0.7343    0.3620   -0.0459 C   0  0  0  0  0  0  0  0  0  0  0  0
    2.0571    0.6223    0.0546 O   0  0  0  0  0  0  0  0  0  0  0  0
    3.0012   -0.4299   -0.1144 C   0  0  0  0  0  0  0  0  0  0  0  0
    0.2259   -0.9376   -0.3265 C   0  0  0  0  0  0  0  0  0  0  0  0
   -1.1358   -1.1119   -0.4072 C   0  0  0  0  0  0  0  0  0  0  0  0
   -3.1967    3.3078    0.4208 H   0  0  0  0  0  0  0  0  0  0  0  0
    0.3566    2.4070    0.3540 H   0  0  0  0  0  0  0  0  0  0  0  0
    3.9819    0.0271    0.0213 H   0  0  0  0  0  0  0  0  0  0  0  0
    2.9431   -0.8657   -1.1189 H   0  0  0  0  0  0  0  0  0  0  0  0
    2.8635   -1.2184    0.6350 H   0  0  0  0  0  0  0  0  0  0  0  0
    0.8872   -1.7815   -0.4756 H   0  0  0  0  0  0  0  0  0  0  0  0
   -1.5689   -2.0858   -0.6201 H   0  0  0  0  0  0  0  0  0  0  0  0
   -3.8545    4.0288    0.5474 O   0  0  0  0  0  0  0  0  0  0  0  0
   -5.0759    3.5239    0.4633 C   0  0  0  0  0  0  0  0  0  0  0  0
   -5.3874    2.3731    0.2657 O   0  0  0  0  0  0  0  0  0  0  0  0
   -6.1244    4.6433    0.6511 C   0  0  0  0  0  0  0  0  0  0  0  0
   -6.0010    5.5664   -0.3212 F   0  0  0  0  0  0  0  0  0  0  0  0
   -7.3609    4.1397    0.6048 F   0  0  0  0  0  0  0  0  0  0  0  0
   -5.9553    5.2566    1.8367 F   0  0  0  0  0  0  0  0  0  0  0  0
  1  4  2  0  0  0  0
  2  1  1  0  0  0  0
  3  2  1  0  0  0  0
  4  5  1  0  0  0  0
  5 12  1  0  0  0  0
  6  7  1  0  0  0  0
  6  5  2  0  0  0  0
  8 13  1  0  0  0  0
  8  7  1  0  0  0  0
  8 15  1  0  0  0  0
  9  6  1  0  0  0  0
 10  9  2  0  0  0  0
 10  1  1  0  0  0  0
 11 18  1  0  0  0  0
 14  8  1  0  0  0  0
 16  9  1  0  0  0  0
 17 10  1  0  0  0  0
 19 18  1  0  0  0  0
 19 21  1  0  0  0  0
 20 19  2  0  0  0  0
 21 24  1  0  0  0  0
 22 21  1  0  0  0  0
 23 21  1  0  0  0  0
M  RAD  3   2   2   3   3   4   2
M  END
