Coordinates from ORCA-job 4-MeOPhN2+~CF3COO-_B3LYPG-6-31G_dp-CH-Scan-d09-49-n800
 OpenBabel11261919493D

 24 23  0  0  0  0  0  0  0  0999 V2000
   -2.2274    0.3551   -0.2145 C   0  0  0  0  0  0  0  0  0  0  0  0
   -3.5895    0.1145   -0.3723 N   0  0  0  0  0  0  0  0  0  0  0  0
   -4.5410   -0.4370   -0.5885 N   0  0  0  0  0  0  0  0  0  0  0  0
   -1.6989    1.6185    0.1073 C   0  0  0  0  0  0  0  0  0  0  0  0
   -0.3186    1.6862    0.2172 C   0  0  0  0  0  0  0  0  0  0  0  0
    0.5073    0.5633    0.0222 C   0  0  0  0  0  0  0  0  0  0  0  0
    1.8283    0.7720    0.1632 O   0  0  0  0  0  0  0  0  0  0  0  0
    2.7370   -0.3142   -0.0121 C   0  0  0  0  0  0  0  0  0  0  0  0
   -0.0612   -0.6906   -0.3013 C   0  0  0  0  0  0  0  0  0  0  0  0
   -1.4317   -0.7970   -0.4215 C   0  0  0  0  0  0  0  0  0  0  0  0
   -2.4585    2.6928    0.3048 H   0  0  0  0  0  0  0  0  0  0  0  0
    0.1631    2.6273    0.4637 H   0  0  0  0  0  0  0  0  0  0  0  0
    3.7298    0.1023    0.1576 H   0  0  0  0  0  0  0  0  0  0  0  0
    2.6818   -0.7190   -1.0290 H   0  0  0  0  0  0  0  0  0  0  0  0
    2.5479   -1.1120    0.7149 H   0  0  0  0  0  0  0  0  0  0  0  0
    0.5548   -1.5672   -0.4568 H   0  0  0  0  0  0  0  0  0  0  0  0
   -1.8932   -1.7473   -0.6710 H   0  0  0  0  0  0  0  0  0  0  0  0
   -3.3259    3.8267    0.5297 O   0  0  0  0  0  0  0  0  0  0  0  0
   -4.4693    3.3059    0.4294 C   0  0  0  0  0  0  0  0  0  0  0  0
   -4.7583    2.1157    0.1876 O   0  0  0  0  0  0  0  0  0  0  0  0
   -5.6801    4.2601    0.6126 C   0  0  0  0  0  0  0  0  0  0  0  0
   -6.3692    4.3632   -0.5456 F   0  0  0  0  0  0  0  0  0  0  0  0
   -6.5262    3.7817    1.5492 F   0  0  0  0  0  0  0  0  0  0  0  0
   -5.3153    5.4975    0.9837 F   0  0  0  0  0  0  0  0  0  0  0  0
  1  4  2  0  0  0  0
  2  1  1  0  0  0  0
  3  2  1  0  0  0  0
  4  5  1  0  0  0  0
  4 11  1  0  0  0  0
  5 12  1  0  0  0  0
  6  7  1  0  0  0  0
  6  5  2  0  0  0  0
  8 13  1  0  0  0  0
  8  7  1  0  0  0  0
  8 15  1  0  0  0  0
  9  6  1  0  0  0  0
 10  9  2  0  0  0  0
 10  1  1  0  0  0  0
 14  8  1  0  0  0  0
 16  9  1  0  0  0  0
 17 10  1  0  0  0  0
 19 18  1  0  0  0  0
 19 21  1  0  0  0  0
 20 19  2  0  0  0  0
 21 24  1  0  0  0  0
 21 23  1  0  0  0  0
 22 21  1  0  0  0  0
M  RAD  3   2   2   3   3  18   2
M  END
