Coordinates from ORCA-job 4-MeOPhN2+~CF3COO-_B3LYPG-6-31G_dp-CH-Scan-d09-49-n800
 OpenBabel11261919493D

 24 23  0  0  0  0  0  0  0  0999 V2000
   -1.5143    0.1187   -0.2750 C   0  0  0  0  0  0  0  0  0  0  0  0
   -2.8908    0.1298   -0.3571 N   0  0  0  0  0  0  0  0  0  0  0  0
   -4.0095    0.1973   -0.4162 N   0  0  0  0  0  0  0  0  0  0  0  0
   -0.9481    1.3976   -0.0586 C   0  0  0  0  0  0  0  0  0  0  0  0
    0.4544    1.2908    0.0121 C   0  0  0  0  0  0  0  0  0  0  0  0
    1.1630    0.0862   -0.1140 C   0  0  0  0  0  0  0  0  0  0  0  0
    2.5125    0.1699   -0.0173 O   0  0  0  0  0  0  0  0  0  0  0  0
    3.3034   -1.0072   -0.1275 C   0  0  0  0  0  0  0  0  0  0  0  0
    0.4881   -1.1504   -0.3319 C   0  0  0  0  0  0  0  0  0  0  0  0
   -0.8840   -1.1468   -0.4164 C   0  0  0  0  0  0  0  0  0  0  0  0
   -3.8087    4.5645    0.5024 H   0  0  0  0  0  0  0  0  0  0  0  0
    1.0673    2.1783    0.1763 H   0  0  0  0  0  0  0  0  0  0  0  0
    4.3385   -0.6823   -0.0130 H   0  0  0  0  0  0  0  0  0  0  0  0
    3.1834   -1.4851   -1.1078 H   0  0  0  0  0  0  0  0  0  0  0  0
    3.0634   -1.7303    0.6614 H   0  0  0  0  0  0  0  0  0  0  0  0
    1.0344   -2.0799   -0.4314 H   0  0  0  0  0  0  0  0  0  0  0  0
   -1.4444   -2.0638   -0.5831 H   0  0  0  0  0  0  0  0  0  0  0  0
   -4.6637    5.0028    0.6543 O   0  0  0  0  0  0  0  0  0  0  0  0
   -5.6240    4.0813    0.5284 C   0  0  0  0  0  0  0  0  0  0  0  0
   -5.4713    2.9153    0.2721 O   0  0  0  0  0  0  0  0  0  0  0  0
   -7.0059    4.7286    0.7640 C   0  0  0  0  0  0  0  0  0  0  0  0
   -7.2119    5.7236   -0.1163 F   0  0  0  0  0  0  0  0  0  0  0  0
   -7.9721    3.8198    0.6193 F   0  0  0  0  0  0  0  0  0  0  0  0
   -7.0743    5.2399    2.0056 F   0  0  0  0  0  0  0  0  0  0  0  0
  1  4  2  0  0  0  0
  2  1  1  0  0  0  0
  3  2  1  0  0  0  0
  4  5  1  0  0  0  0
  5 12  1  0  0  0  0
  6  7  1  0  0  0  0
  6  5  2  0  0  0  0
  8  7  1  0  0  0  0
  8 13  1  0  0  0  0
  8 15  1  0  0  0  0
  9  6  1  0  0  0  0
 10  9  2  0  0  0  0
 10  1  1  0  0  0  0
 11 18  1  0  0  0  0
 14  8  1  0  0  0  0
 16  9  1  0  0  0  0
 17 10  1  0  0  0  0
 19 18  1  0  0  0  0
 19 21  1  0  0  0  0
 20 19  2  0  0  0  0
 21 24  1  0  0  0  0
 22 21  1  0  0  0  0
 23 21  1  0  0  0  0
M  RAD  3   2   2   3   3   4   2
M  END
