Coordinates from ORCA-job 4-MeOPhN2+~CF3COO-_B3LYPG-6-31G_dp-CH-Scan-d09-49-n800
 OpenBabel11261919493D

 24 23  0  0  0  0  0  0  0  0999 V2000
   -2.1812    0.0568   -0.2187 C   0  0  0  0  0  0  0  0  0  0  0  0
   -3.5307   -0.1935   -0.3177 N   0  0  0  0  0  0  0  0  0  0  0  0
   -4.6472   -0.2598   -0.3666 N   0  0  0  0  0  0  0  0  0  0  0  0
   -1.8170    1.3930    0.0604 C   0  0  0  0  0  0  0  0  0  0  0  0
   -0.4416    1.5819    0.1527 C   0  0  0  0  0  0  0  0  0  0  0  0
    0.4854    0.5351   -0.0173 C   0  0  0  0  0  0  0  0  0  0  0  0
    1.7823    0.8736    0.1037 O   0  0  0  0  0  0  0  0  0  0  0  0
    2.7930   -0.1223   -0.0450 C   0  0  0  0  0  0  0  0  0  0  0  0
    0.0486   -0.7855   -0.2982 C   0  0  0  0  0  0  0  0  0  0  0  0
   -1.3029   -1.0345   -0.4017 C   0  0  0  0  0  0  0  0  0  0  0  0
   -2.7718    2.4835    0.2412 H   0  0  0  0  0  0  0  0  0  0  0  0
   -0.0355    2.5676    0.3660 H   0  0  0  0  0  0  0  0  0  0  0  0
    3.7404    0.3957    0.1030 H   0  0  0  0  0  0  0  0  0  0  0  0
    2.7738   -0.5634   -1.0479 H   0  0  0  0  0  0  0  0  0  0  0  0
    2.6888   -0.9116    0.7083 H   0  0  0  0  0  0  0  0  0  0  0  0
    0.7546   -1.5947   -0.4317 H   0  0  0  0  0  0  0  0  0  0  0  0
   -1.6766   -2.0313   -0.6157 H   0  0  0  0  0  0  0  0  0  0  0  0
   -3.4704    3.4521    0.4088 O   0  0  0  0  0  0  0  0  0  0  0  0
   -4.7308    3.1984    0.4040 C   0  0  0  0  0  0  0  0  0  0  0  0
   -5.3132    2.1291    0.2355 O   0  0  0  0  0  0  0  0  0  0  0  0
   -5.5742    4.4778    0.6461 C   0  0  0  0  0  0  0  0  0  0  0  0
   -5.3650    5.3780   -0.3389 F   0  0  0  0  0  0  0  0  0  0  0  0
   -6.8881    4.2099    0.6858 F   0  0  0  0  0  0  0  0  0  0  0  0
   -5.2354    5.0629    1.8144 F   0  0  0  0  0  0  0  0  0  0  0  0
  1  4  2  0  0  0  0
  2  1  1  0  0  0  0
  3  2  1  0  0  0  0
  4  5  1  0  0  0  0
  5 12  1  0  0  0  0
  6  7  1  0  0  0  0
  6  5  2  0  0  0  0
  8 13  1  0  0  0  0
  8  7  1  0  0  0  0
  8 15  1  0  0  0  0
  9  6  1  0  0  0  0
 10  9  2  0  0  0  0
 10  1  1  0  0  0  0
 11 18  1  0  0  0  0
 14  8  1  0  0  0  0
 16  9  1  0  0  0  0
 17 10  1  0  0  0  0
 19 18  1  0  0  0  0
 19 21  1  0  0  0  0
 20 19  2  0  0  0  0
 21 23  1  0  0  0  0
 21 24  1  0  0  0  0
 22 21  1  0  0  0  0
M  RAD  3   2   2   3   3   4   2
M  END
