Coordinates from ORCA-job 4-MeOPhN2+~CF3COO-_B3LYPG-6-31G_dp-CH-Scan-d09-49-n800
 OpenBabel11261919493D

 24 23  0  0  0  0  0  0  0  0999 V2000
   -1.5285    0.1152   -0.2763 C   0  0  0  0  0  0  0  0  0  0  0  0
   -2.9049    0.1193   -0.3603 N   0  0  0  0  0  0  0  0  0  0  0  0
   -4.0239    0.1806   -0.4211 N   0  0  0  0  0  0  0  0  0  0  0  0
   -0.9685    1.3962   -0.0567 C   0  0  0  0  0  0  0  0  0  0  0  0
    0.4344    1.2958    0.0159 C   0  0  0  0  0  0  0  0  0  0  0  0
    1.1488    0.0948   -0.1115 C   0  0  0  0  0  0  0  0  0  0  0  0
    2.4977    0.1846   -0.0124 O   0  0  0  0  0  0  0  0  0  0  0  0
    3.2943   -0.9887   -0.1230 C   0  0  0  0  0  0  0  0  0  0  0  0
    0.4800   -1.1444   -0.3330 C   0  0  0  0  0  0  0  0  0  0  0  0
   -0.8920   -1.1470   -0.4195 C   0  0  0  0  0  0  0  0  0  0  0  0
   -3.7846    4.5305    0.4920 H   0  0  0  0  0  0  0  0  0  0  0  0
    1.0429    2.1858    0.1827 H   0  0  0  0  0  0  0  0  0  0  0  0
    4.3276   -0.6593   -0.0057 H   0  0  0  0  0  0  0  0  0  0  0  0
    3.1784   -1.4655   -1.1043 H   0  0  0  0  0  0  0  0  0  0  0  0
    3.0558   -1.7143    0.6641 H   0  0  0  0  0  0  0  0  0  0  0  0
    1.0308   -2.0712   -0.4336 H   0  0  0  0  0  0  0  0  0  0  0  0
   -1.4478   -2.0662   -0.5889 H   0  0  0  0  0  0  0  0  0  0  0  0
   -4.6350    4.9768    0.6467 O   0  0  0  0  0  0  0  0  0  0  0  0
   -5.6046    4.0649    0.5249 C   0  0  0  0  0  0  0  0  0  0  0  0
   -5.4648    2.8972    0.2684 O   0  0  0  0  0  0  0  0  0  0  0  0
   -6.9792    4.7259    0.7654 C   0  0  0  0  0  0  0  0  0  0  0  0
   -7.1797    5.7209   -0.1163 F   0  0  0  0  0  0  0  0  0  0  0  0
   -7.9547    3.8260    0.6270 F   0  0  0  0  0  0  0  0  0  0  0  0
   -7.0373    5.2405    2.0060 F   0  0  0  0  0  0  0  0  0  0  0  0
  1  4  2  0  0  0  0
  2  1  1  0  0  0  0
  3  2  1  0  0  0  0
  4  5  1  0  0  0  0
  5 12  1  0  0  0  0
  6  7  1  0  0  0  0
  6  5  2  0  0  0  0
  8  7  1  0  0  0  0
  8 13  1  0  0  0  0
  8 15  1  0  0  0  0
  9  6  1  0  0  0  0
 10  9  2  0  0  0  0
 10  1  1  0  0  0  0
 11 18  1  0  0  0  0
 14  8  1  0  0  0  0
 16  9  1  0  0  0  0
 17 10  1  0  0  0  0
 19 18  1  0  0  0  0
 19 21  1  0  0  0  0
 20 19  2  0  0  0  0
 21 24  1  0  0  0  0
 22 21  1  0  0  0  0
 23 21  1  0  0  0  0
M  RAD  3   2   2   3   3   4   2
M  END
