Coordinates from ORCA-job 4-MeOPhN2+~CF3COO-_B3LYPG-6-31G_dp-CH-Scan-d09-49-n800
 OpenBabel11261919493D

 24 23  0  0  0  0  0  0  0  0999 V2000
   -2.0297    0.0390   -0.2042 C   0  0  0  0  0  0  0  0  0  0  0  0
   -3.3840   -0.1840   -0.2915 N   0  0  0  0  0  0  0  0  0  0  0  0
   -4.4939   -0.3215   -0.3532 N   0  0  0  0  0  0  0  0  0  0  0  0
   -1.6491    1.3728    0.0833 C   0  0  0  0  0  0  0  0  0  0  0  0
   -0.2551    1.4960    0.1552 C   0  0  0  0  0  0  0  0  0  0  0  0
    0.6363    0.4257   -0.0338 C   0  0  0  0  0  0  0  0  0  0  0  0
    1.9501    0.7194    0.0748 O   0  0  0  0  0  0  0  0  0  0  0  0
    2.9223   -0.3082   -0.0916 C   0  0  0  0  0  0  0  0  0  0  0  0
    0.1610   -0.8839   -0.3214 C   0  0  0  0  0  0  0  0  0  0  0  0
   -1.1959   -1.0906   -0.4101 C   0  0  0  0  0  0  0  0  0  0  0  0
   -3.0765    3.0427    0.3790 H   0  0  0  0  0  0  0  0  0  0  0  0
    0.2029    2.4601    0.3712 H   0  0  0  0  0  0  0  0  0  0  0  0
    3.8898    0.1738    0.0511 H   0  0  0  0  0  0  0  0  0  0  0  0
    2.8806   -0.7420   -1.0976 H   0  0  0  0  0  0  0  0  0  0  0  0
    2.8001   -1.1016    0.6552 H   0  0  0  0  0  0  0  0  0  0  0  0
    0.8427   -1.7114   -0.4699 H   0  0  0  0  0  0  0  0  0  0  0  0
   -1.6037   -2.0739   -0.6286 H   0  0  0  0  0  0  0  0  0  0  0  0
   -3.6957    3.8144    0.5150 O   0  0  0  0  0  0  0  0  0  0  0  0
   -4.9463    3.4047    0.4443 C   0  0  0  0  0  0  0  0  0  0  0  0
   -5.3537    2.2810    0.2473 O   0  0  0  0  0  0  0  0  0  0  0  0
   -5.9112    4.5958    0.6446 C   0  0  0  0  0  0  0  0  0  0  0  0
   -5.7486    5.5006   -0.3400 F   0  0  0  0  0  0  0  0  0  0  0  0
   -7.1821    4.1808    0.6318 F   0  0  0  0  0  0  0  0  0  0  0  0
   -5.6748    5.2090    1.8194 F   0  0  0  0  0  0  0  0  0  0  0  0
  1  4  2  0  0  0  0
  2  1  1  0  0  0  0
  3  2  1  0  0  0  0
  4  5  1  0  0  0  0
  5 12  1  0  0  0  0
  6  7  1  0  0  0  0
  6  5  2  0  0  0  0
  8 13  1  0  0  0  0
  8  7  1  0  0  0  0
  8 15  1  0  0  0  0
  9  6  1  0  0  0  0
 10  9  2  0  0  0  0
 10  1  1  0  0  0  0
 11 18  1  0  0  0  0
 14  8  1  0  0  0  0
 16  9  1  0  0  0  0
 17 10  1  0  0  0  0
 19 18  1  0  0  0  0
 19 21  1  0  0  0  0
 20 19  2  0  0  0  0
 21 24  1  0  0  0  0
 22 21  1  0  0  0  0
 23 21  1  0  0  0  0
M  RAD  3   2   2   3   3   4   2
M  END
