Coordinates from ORCA-job 4-MeOPhN2+~CF3COO-_B3LYPG-6-31G_dp-CH-Scan-d09-49-n800
 OpenBabel11261919493D

 24 23  0  0  0  0  0  0  0  0999 V2000
   -1.9181    0.0426   -0.2008 C   0  0  0  0  0  0  0  0  0  0  0  0
   -3.2807   -0.1340   -0.2787 N   0  0  0  0  0  0  0  0  0  0  0  0
   -4.3957   -0.2341   -0.3322 N   0  0  0  0  0  0  0  0  0  0  0  0
   -1.5021    1.3667    0.0796 C   0  0  0  0  0  0  0  0  0  0  0  0
   -0.1026    1.4457    0.1424 C   0  0  0  0  0  0  0  0  0  0  0  0
    0.7544    0.3488   -0.0479 C   0  0  0  0  0  0  0  0  0  0  0  0
    2.0789    0.6019    0.0518 O   0  0  0  0  0  0  0  0  0  0  0  0
    3.0171   -0.4553   -0.1181 C   0  0  0  0  0  0  0  0  0  0  0  0
    0.2392   -0.9483   -0.3282 C   0  0  0  0  0  0  0  0  0  0  0  0
   -1.1234   -1.1155   -0.4084 C   0  0  0  0  0  0  0  0  0  0  0  0
   -3.2217    3.3626    0.4264 H   0  0  0  0  0  0  0  0  0  0  0  0
    0.3883    2.3957    0.3515 H   0  0  0  0  0  0  0  0  0  0  0  0
    4.0004   -0.0036    0.0167 H   0  0  0  0  0  0  0  0  0  0  0  0
    2.9558   -0.8909   -1.1225 H   0  0  0  0  0  0  0  0  0  0  0  0
    2.8760   -1.2431    0.6314 H   0  0  0  0  0  0  0  0  0  0  0  0
    0.8962   -1.7956   -0.4776 H   0  0  0  0  0  0  0  0  0  0  0  0
   -1.5618   -2.0872   -0.6212 H   0  0  0  0  0  0  0  0  0  0  0  0
   -3.8882    4.0736    0.5499 O   0  0  0  0  0  0  0  0  0  0  0  0
   -5.1025    3.5488    0.4670 C   0  0  0  0  0  0  0  0  0  0  0  0
   -5.3940    2.3928    0.2725 O   0  0  0  0  0  0  0  0  0  0  0  0
   -6.1679    4.6524    0.6527 C   0  0  0  0  0  0  0  0  0  0  0  0
   -6.0549    5.5783   -0.3178 F   0  0  0  0  0  0  0  0  0  0  0  0
   -7.3963    4.1301    0.6019 F   0  0  0  0  0  0  0  0  0  0  0  0
   -6.0112    5.2660    1.8397 F   0  0  0  0  0  0  0  0  0  0  0  0
  1  4  2  0  0  0  0
  2  1  1  0  0  0  0
  3  2  1  0  0  0  0
  4  5  1  0  0  0  0
  5 12  1  0  0  0  0
  6  7  1  0  0  0  0
  6  5  2  0  0  0  0
  8 13  1  0  0  0  0
  8  7  1  0  0  0  0
  8 15  1  0  0  0  0
  9  6  1  0  0  0  0
 10  9  2  0  0  0  0
 10  1  1  0  0  0  0
 11 18  1  0  0  0  0
 14  8  1  0  0  0  0
 16  9  1  0  0  0  0
 17 10  1  0  0  0  0
 19 18  1  0  0  0  0
 19 21  1  0  0  0  0
 20 19  2  0  0  0  0
 21 24  1  0  0  0  0
 22 21  1  0  0  0  0
 23 21  1  0  0  0  0
M  RAD  3   2   2   3   3   4   2
M  END
