Coordinates from ORCA-job 4-MeOPhN2+~CF3COO-_B3LYPG-6-31G_dp-CH-Scan-d09-49-n800
 OpenBabel11261919503D

 24 23  0  0  0  0  0  0  0  0999 V2000
   -1.3826    0.1780   -0.2670 C   0  0  0  0  0  0  0  0  0  0  0  0
   -2.7574    0.2621   -0.3389 N   0  0  0  0  0  0  0  0  0  0  0  0
   -3.8713    0.3915   -0.3889 N   0  0  0  0  0  0  0  0  0  0  0  0
   -0.7507    1.4282   -0.0675 C   0  0  0  0  0  0  0  0  0  0  0  0
    0.6453    1.2501   -0.0065 C   0  0  0  0  0  0  0  0  0  0  0  0
    1.2898    0.0098   -0.1281 C   0  0  0  0  0  0  0  0  0  0  0  0
    2.6430    0.0252   -0.0451 O   0  0  0  0  0  0  0  0  0  0  0  0
    3.3721   -1.1908   -0.1581 C   0  0  0  0  0  0  0  0  0  0  0  0
    0.5505   -1.1928   -0.3277 C   0  0  0  0  0  0  0  0  0  0  0  0
   -0.8203   -1.1198   -0.4007 C   0  0  0  0  0  0  0  0  0  0  0  0
   -4.0378    4.9089    0.5316 H   0  0  0  0  0  0  0  0  0  0  0  0
    1.3042    2.1064    0.1445 H   0  0  0  0  0  0  0  0  0  0  0  0
    4.4237   -0.9178   -0.0595 H   0  0  0  0  0  0  0  0  0  0  0  0
    3.2148   -1.6681   -1.1336 H   0  0  0  0  0  0  0  0  0  0  0  0
    3.1073   -1.8967    0.6387 H   0  0  0  0  0  0  0  0  0  0  0  0
    1.0478   -2.1499   -0.4220 H   0  0  0  0  0  0  0  0  0  0  0  0
   -1.4285   -2.0085   -0.5524 H   0  0  0  0  0  0  0  0  0  0  0  0
   -4.9367    5.2515    0.6768 O   0  0  0  0  0  0  0  0  0  0  0  0
   -5.7873    4.2272    0.5484 C   0  0  0  0  0  0  0  0  0  0  0  0
   -5.5011    3.0852    0.2993 O   0  0  0  0  0  0  0  0  0  0  0  0
   -7.2348    4.7160    0.7705 C   0  0  0  0  0  0  0  0  0  0  0  0
   -7.5463    5.6728   -0.1206 F   0  0  0  0  0  0  0  0  0  0  0  0
   -8.0905    3.7021    0.6303 F   0  0  0  0  0  0  0  0  0  0  0  0
   -7.3677    5.2279    2.0067 F   0  0  0  0  0  0  0  0  0  0  0  0
  1  4  2  0  0  0  0
  2  1  1  0  0  0  0
  3  2  1  0  0  0  0
  4  5  1  0  0  0  0
  5 12  1  0  0  0  0
  6  7  1  0  0  0  0
  6  5  2  0  0  0  0
  8 13  1  0  0  0  0
  8  7  1  0  0  0  0
  8 15  1  0  0  0  0
  9  6  1  0  0  0  0
 10  9  2  0  0  0  0
 10  1  1  0  0  0  0
 11 18  1  0  0  0  0
 14  8  1  0  0  0  0
 16  9  1  0  0  0  0
 17 10  1  0  0  0  0
 19 18  1  0  0  0  0
 19 21  1  0  0  0  0
 20 19  2  0  0  0  0
 21 24  1  0  0  0  0
 22 21  1  0  0  0  0
 23 21  1  0  0  0  0
M  RAD  3   2   2   3   3   4   2
M  END
