Coordinates from ORCA-job 4-MeOPhN2+~CF3COO-_B3LYPG-6-31G_dp-CH-Scan-d09-49-n800
 OpenBabel11261919493D

 24 23  0  0  0  0  0  0  0  0999 V2000
   -2.1740    0.0710   -0.2170 C   0  0  0  0  0  0  0  0  0  0  0  0
   -3.5291   -0.1591   -0.3122 N   0  0  0  0  0  0  0  0  0  0  0  0
   -4.6501   -0.1516   -0.3438 N   0  0  0  0  0  0  0  0  0  0  0  0
   -1.7909    1.4006    0.0583 C   0  0  0  0  0  0  0  0  0  0  0  0
   -0.4182    1.5890    0.1508 C   0  0  0  0  0  0  0  0  0  0  0  0
    0.5004    0.5336   -0.0180 C   0  0  0  0  0  0  0  0  0  0  0  0
    1.7992    0.8636    0.1015 O   0  0  0  0  0  0  0  0  0  0  0  0
    2.8027   -0.1398   -0.0462 C   0  0  0  0  0  0  0  0  0  0  0  0
    0.0522   -0.7827   -0.2954 C   0  0  0  0  0  0  0  0  0  0  0  0
   -1.3024   -1.0229   -0.3977 C   0  0  0  0  0  0  0  0  0  0  0  0
   -2.7254    2.4373    0.2244 H   0  0  0  0  0  0  0  0  0  0  0  0
   -0.0097    2.5736    0.3616 H   0  0  0  0  0  0  0  0  0  0  0  0
    3.7538    0.3719    0.1002 H   0  0  0  0  0  0  0  0  0  0  0  0
    2.7793   -0.5823   -1.0484 H   0  0  0  0  0  0  0  0  0  0  0  0
    2.6932   -0.9268    0.7086 H   0  0  0  0  0  0  0  0  0  0  0  0
    0.7519   -1.5977   -0.4275 H   0  0  0  0  0  0  0  0  0  0  0  0
   -1.6829   -2.0174   -0.6092 H   0  0  0  0  0  0  0  0  0  0  0  0
   -3.4970    3.4438    0.3940 O   0  0  0  0  0  0  0  0  0  0  0  0
   -4.7493    3.1910    0.3963 C   0  0  0  0  0  0  0  0  0  0  0  0
   -5.3457    2.1224    0.2308 O   0  0  0  0  0  0  0  0  0  0  0  0
   -5.6007    4.4657    0.6468 C   0  0  0  0  0  0  0  0  0  0  0  0
   -5.3970    5.3723   -0.3339 F   0  0  0  0  0  0  0  0  0  0  0  0
   -6.9148    4.1967    0.6893 F   0  0  0  0  0  0  0  0  0  0  0  0
   -5.2605    5.0462    1.8174 F   0  0  0  0  0  0  0  0  0  0  0  0
  1  4  2  0  0  0  0
  2  1  1  0  0  0  0
  3  2  1  0  0  0  0
  4  5  1  0  0  0  0
  5 12  1  0  0  0  0
  6  7  1  0  0  0  0
  6  5  2  0  0  0  0
  8 13  1  0  0  0  0
  8  7  1  0  0  0  0
  8 15  1  0  0  0  0
  9  6  1  0  0  0  0
 10  9  2  0  0  0  0
 10  1  1  0  0  0  0
 11 18  1  0  0  0  0
 14  8  1  0  0  0  0
 16  9  1  0  0  0  0
 17 10  1  0  0  0  0
 18 19  1  0  0  0  0
 19 21  1  0  0  0  0
 20 19  2  0  0  0  0
 21 23  1  0  0  0  0
 21 24  1  0  0  0  0
 22 21  1  0  0  0  0
M  RAD  3   2   2   3   3   4   2
M  END
