Coordinates from ORCA-job 4-MeOPhN2+~CF3COO-_B3LYPG-6-31G_dp-CH-Scan-d09-49-n800
 OpenBabel11261919493D

 24 23  0  0  0  0  0  0  0  0999 V2000
   -1.4808    0.1283   -0.2700 C   0  0  0  0  0  0  0  0  0  0  0  0
   -2.8574    0.1553   -0.3477 N   0  0  0  0  0  0  0  0  0  0  0  0
   -3.9755    0.2362   -0.4032 N   0  0  0  0  0  0  0  0  0  0  0  0
   -0.8997    1.4014   -0.0601 C   0  0  0  0  0  0  0  0  0  0  0  0
    0.5019    1.2790    0.0060 C   0  0  0  0  0  0  0  0  0  0  0  0
    1.1963    0.0661   -0.1191 C   0  0  0  0  0  0  0  0  0  0  0  0
    2.5471    0.1349   -0.0283 O   0  0  0  0  0  0  0  0  0  0  0  0
    3.3244   -1.0511   -0.1395 C   0  0  0  0  0  0  0  0  0  0  0  0
    0.5066   -1.1636   -0.3300 C   0  0  0  0  0  0  0  0  0  0  0  0
   -0.8657   -1.1449   -0.4093 C   0  0  0  0  0  0  0  0  0  0  0  0
   -3.8656    4.6453    0.5271 H   0  0  0  0  0  0  0  0  0  0  0  0
    1.1254    2.1600    0.1649 H   0  0  0  0  0  0  0  0  0  0  0  0
    4.3636   -0.7373   -0.0311 H   0  0  0  0  0  0  0  0  0  0  0  0
    3.1940   -1.5304   -1.1178 H   0  0  0  0  0  0  0  0  0  0  0  0
    3.0806   -1.7695    0.6526 H   0  0  0  0  0  0  0  0  0  0  0  0
    1.0421   -2.0996   -0.4282 H   0  0  0  0  0  0  0  0  0  0  0  0
   -1.4370   -2.0560   -0.5704 H   0  0  0  0  0  0  0  0  0  0  0  0
   -4.7319    5.0634    0.6719 O   0  0  0  0  0  0  0  0  0  0  0  0
   -5.6691    4.1196    0.5364 C   0  0  0  0  0  0  0  0  0  0  0  0
   -5.4864    2.9577    0.2809 O   0  0  0  0  0  0  0  0  0  0  0  0
   -7.0679    4.7340    0.7598 C   0  0  0  0  0  0  0  0  0  0  0  0
   -7.2882    5.7263   -0.1199 F   0  0  0  0  0  0  0  0  0  0  0  0
   -8.0113    3.8033    0.6033 F   0  0  0  0  0  0  0  0  0  0  0  0
   -7.1602    5.2400    2.0020 F   0  0  0  0  0  0  0  0  0  0  0  0
  1  4  2  0  0  0  0
  2  1  1  0  0  0  0
  3  2  1  0  0  0  0
  4  5  1  0  0  0  0
  5 12  1  0  0  0  0
  6  7  1  0  0  0  0
  6  5  2  0  0  0  0
  8 13  1  0  0  0  0
  8  7  1  0  0  0  0
  8 15  1  0  0  0  0
  9  6  1  0  0  0  0
 10  9  2  0  0  0  0
 10  1  1  0  0  0  0
 11 18  1  0  0  0  0
 14  8  1  0  0  0  0
 16  9  1  0  0  0  0
 17 10  1  0  0  0  0
 19 18  1  0  0  0  0
 19 21  1  0  0  0  0
 20 19  2  0  0  0  0
 21 24  1  0  0  0  0
 22 21  1  0  0  0  0
 23 21  1  0  0  0  0
M  RAD  3   2   2   3   3   4   2
M  END
