Coordinates from ORCA-job 4-MeOPhN2+~CF3COO-_B3LYPG-6-31G_dp-CH-Scan-d09-49-n800
 OpenBabel11261919493D

 24 23  0  0  0  0  0  0  0  0999 V2000
   -1.5688    0.0960   -0.1635 C   0  0  0  0  0  0  0  0  0  0  0  0
   -2.9468    0.0783   -0.2034 N   0  0  0  0  0  0  0  0  0  0  0  0
   -4.0681    0.1188   -0.2242 N   0  0  0  0  0  0  0  0  0  0  0  0
   -1.0215    1.3731    0.1069 C   0  0  0  0  0  0  0  0  0  0  0  0
    0.3843    1.2929    0.1312 C   0  0  0  0  0  0  0  0  0  0  0  0
    1.1132    0.1129   -0.0827 C   0  0  0  0  0  0  0  0  0  0  0  0
    2.4629    0.2208   -0.0207 O   0  0  0  0  0  0  0  0  0  0  0  0
    3.2741   -0.9296   -0.2241 C   0  0  0  0  0  0  0  0  0  0  0  0
    0.4570   -1.1241   -0.3492 C   0  0  0  0  0  0  0  0  0  0  0  0
   -0.9168   -1.1455   -0.3931 C   0  0  0  0  0  0  0  0  0  0  0  0
   -3.7161    4.4216    0.6444 H   0  0  0  0  0  0  0  0  0  0  0  0
    0.9838    2.1831    0.3268 H   0  0  0  0  0  0  0  0  0  0  0  0
    4.3054   -0.5879   -0.1255 H   0  0  0  0  0  0  0  0  0  0  0  0
    3.1309   -1.3540   -1.2256 H   0  0  0  0  0  0  0  0  0  0  0  0
    3.0769   -1.7017    0.5295 H   0  0  0  0  0  0  0  0  0  0  0  0
    1.0179   -2.0351   -0.5156 H   0  0  0  0  0  0  0  0  0  0  0  0
   -1.4633   -2.0641   -0.5935 H   0  0  0  0  0  0  0  0  0  0  0  0
   -4.5601    4.8994    0.7198 O   0  0  0  0  0  0  0  0  0  0  0  0
   -5.5476    4.0215    0.5212 C   0  0  0  0  0  0  0  0  0  0  0  0
   -5.4294    2.8462    0.2889 O   0  0  0  0  0  0  0  0  0  0  0  0
   -6.9139    4.7309    0.6411 C   0  0  0  0  0  0  0  0  0  0  0  0
   -6.9964    5.7458   -0.2365 F   0  0  0  0  0  0  0  0  0  0  0  0
   -7.9036    3.8701    0.3972 F   0  0  0  0  0  0  0  0  0  0  0  0
   -7.0688    5.2291    1.8808 F   0  0  0  0  0  0  0  0  0  0  0  0
  1  4  2  0  0  0  0
  2  1  1  0  0  0  0
  3  2  1  0  0  0  0
  4  5  1  0  0  0  0
  5 12  1  0  0  0  0
  6  7  1  0  0  0  0
  6  5  2  0  0  0  0
  8 13  1  0  0  0  0
  8  7  1  0  0  0  0
  8 15  1  0  0  0  0
  9  6  1  0  0  0  0
 10  9  2  0  0  0  0
 10  1  1  0  0  0  0
 11 18  1  0  0  0  0
 14  8  1  0  0  0  0
 16  9  1  0  0  0  0
 17 10  1  0  0  0  0
 19 21  1  0  0  0  0
 19 18  1  0  0  0  0
 20 19  2  0  0  0  0
 21 24  1  0  0  0  0
 22 21  1  0  0  0  0
 23 21  1  0  0  0  0
M  RAD  3   2   2   3   3   4   2
M  END
