Coordinates from ORCA-job 4-MeOPhN2+~CF3COO-_B3LYPG-6-31G_dp-CH-Scan-d09-49-n800
 OpenBabel11261919493D

 24 23  0  0  0  0  0  0  0  0999 V2000
   -1.4118    0.1578   -0.2590 C   0  0  0  0  0  0  0  0  0  0  0  0
   -2.7878    0.2229   -0.3276 N   0  0  0  0  0  0  0  0  0  0  0  0
   -3.9034    0.3369   -0.3758 N   0  0  0  0  0  0  0  0  0  0  0  0
   -0.7965    1.4162   -0.0587 C   0  0  0  0  0  0  0  0  0  0  0  0
    0.6019    1.2571   -0.0016 C   0  0  0  0  0  0  0  0  0  0  0  0
    1.2631    0.0259   -0.1270 C   0  0  0  0  0  0  0  0  0  0  0  0
    2.6161    0.0597   -0.0471 O   0  0  0  0  0  0  0  0  0  0  0  0
    3.3615   -1.1462   -0.1628 C   0  0  0  0  0  0  0  0  0  0  0  0
    0.5398   -1.1863   -0.3271 C   0  0  0  0  0  0  0  0  0  0  0  0
   -0.8320   -1.1319   -0.3966 C   0  0  0  0  0  0  0  0  0  0  0  0
   -3.9847    4.8199    0.5617 H   0  0  0  0  0  0  0  0  0  0  0  0
    1.2495    2.1220    0.1493 H   0  0  0  0  0  0  0  0  0  0  0  0
    4.4095   -0.8590   -0.0656 H   0  0  0  0  0  0  0  0  0  0  0  0
    3.2091   -1.6243   -1.1386 H   0  0  0  0  0  0  0  0  0  0  0  0
    3.1074   -1.8564    0.6335 H   0  0  0  0  0  0  0  0  0  0  0  0
    1.0500   -2.1364   -0.4244 H   0  0  0  0  0  0  0  0  0  0  0  0
   -1.4284   -2.0285   -0.5487 H   0  0  0  0  0  0  0  0  0  0  0  0
   -4.8740    5.1906    0.6956 O   0  0  0  0  0  0  0  0  0  0  0  0
   -5.7556    4.1954    0.5492 C   0  0  0  0  0  0  0  0  0  0  0  0
   -5.5034    3.0459    0.2977 O   0  0  0  0  0  0  0  0  0  0  0  0
   -7.1894    4.7303    0.7536 C   0  0  0  0  0  0  0  0  0  0  0  0
   -7.4543    5.7064   -0.1317 F   0  0  0  0  0  0  0  0  0  0  0  0
   -8.0763    3.7473    0.5888 F   0  0  0  0  0  0  0  0  0  0  0  0
   -7.3250    5.2334    1.9932 F   0  0  0  0  0  0  0  0  0  0  0  0
  1  4  2  0  0  0  0
  2  1  1  0  0  0  0
  3  2  1  0  0  0  0
  4  5  1  0  0  0  0
  5 12  1  0  0  0  0
  6  7  1  0  0  0  0
  6  5  2  0  0  0  0
  8 13  1  0  0  0  0
  8  7  1  0  0  0  0
  8 15  1  0  0  0  0
  9  6  1  0  0  0  0
 10  9  2  0  0  0  0
 10  1  1  0  0  0  0
 11 18  1  0  0  0  0
 14  8  1  0  0  0  0
 16  9  1  0  0  0  0
 17 10  1  0  0  0  0
 19 18  1  0  0  0  0
 19 21  1  0  0  0  0
 20 19  2  0  0  0  0
 21 24  1  0  0  0  0
 22 21  1  0  0  0  0
 23 21  1  0  0  0  0
M  RAD  3   2   2   3   3   4   2
M  END
