Coordinates from ORCA-job 4-MeOPhN2+~CF3COO-_B3LYPG-6-31G_dp-CH-Scan-d09-49-n800
 OpenBabel11261919493D

 24 23  0  0  0  0  0  0  0  0999 V2000
   -2.0082    0.0399   -0.2038 C   0  0  0  0  0  0  0  0  0  0  0  0
   -3.3642   -0.1741   -0.2890 N   0  0  0  0  0  0  0  0  0  0  0  0
   -4.4752   -0.3054   -0.3493 N   0  0  0  0  0  0  0  0  0  0  0  0
   -1.6208    1.3718    0.0823 C   0  0  0  0  0  0  0  0  0  0  0  0
   -0.2256    1.4865    0.1525 C   0  0  0  0  0  0  0  0  0  0  0  0
    0.6592    0.4110   -0.0367 C   0  0  0  0  0  0  0  0  0  0  0  0
    1.9752    0.6968    0.0703 O   0  0  0  0  0  0  0  0  0  0  0  0
    2.9408   -0.3368   -0.0964 C   0  0  0  0  0  0  0  0  0  0  0  0
    0.1761   -0.8963   -0.3229 C   0  0  0  0  0  0  0  0  0  0  0  0
   -1.1820   -1.0954   -0.4100 C   0  0  0  0  0  0  0  0  0  0  0  0
   -3.1046    3.1046    0.3885 H   0  0  0  0  0  0  0  0  0  0  0  0
    0.2389    2.4479    0.3671 H   0  0  0  0  0  0  0  0  0  0  0  0
    3.9115    0.1393    0.0451 H   0  0  0  0  0  0  0  0  0  0  0  0
    2.8956   -0.7710   -1.1021 H   0  0  0  0  0  0  0  0  0  0  0  0
    2.8145   -1.1291    0.6509 H   0  0  0  0  0  0  0  0  0  0  0  0
    0.8531   -1.7277   -0.4716 H   0  0  0  0  0  0  0  0  0  0  0  0
   -1.5956   -2.0765   -0.6275 H   0  0  0  0  0  0  0  0  0  0  0  0
   -3.7318    3.8642    0.5223 O   0  0  0  0  0  0  0  0  0  0  0  0
   -4.9765    3.4321    0.4486 C   0  0  0  0  0  0  0  0  0  0  0  0
   -5.3615    2.3015    0.2513 O   0  0  0  0  0  0  0  0  0  0  0  0
   -5.9611    4.6071    0.6464 C   0  0  0  0  0  0  0  0  0  0  0  0
   -5.8087    5.5155   -0.3363 F   0  0  0  0  0  0  0  0  0  0  0  0
   -7.2245    4.1709    0.6275 F   0  0  0  0  0  0  0  0  0  0  0  0
   -5.7391    5.2218    1.8231 F   0  0  0  0  0  0  0  0  0  0  0  0
  1  4  2  0  0  0  0
  2  1  1  0  0  0  0
  3  2  1  0  0  0  0
  4  5  1  0  0  0  0
  5 12  1  0  0  0  0
  6  7  1  0  0  0  0
  6  5  2  0  0  0  0
  8 13  1  0  0  0  0
  8  7  1  0  0  0  0
  8 15  1  0  0  0  0
  9  6  1  0  0  0  0
 10  9  2  0  0  0  0
 10  1  1  0  0  0  0
 11 18  1  0  0  0  0
 14  8  1  0  0  0  0
 16  9  1  0  0  0  0
 17 10  1  0  0  0  0
 19 18  1  0  0  0  0
 19 21  1  0  0  0  0
 20 19  2  0  0  0  0
 21 24  1  0  0  0  0
 22 21  1  0  0  0  0
 23 21  1  0  0  0  0
M  RAD  3   2   2   3   3   4   2
M  END
