Coordinates from ORCA-job 4-MeOPhN2+~CF3COO-_B3LYPG-6-31G_dp-CH-Scan-d09-49-n800
 OpenBabel11261919493D

 24 23  0  0  0  0  0  0  0  0999 V2000
   -1.6641    0.0639   -0.1461 C   0  0  0  0  0  0  0  0  0  0  0  0
   -3.0401   -0.0042   -0.1847 N   0  0  0  0  0  0  0  0  0  0  0  0
   -4.1619   -0.0073   -0.2040 N   0  0  0  0  0  0  0  0  0  0  0  0
   -1.1587    1.3581    0.1257 C   0  0  0  0  0  0  0  0  0  0  0  0
    0.2483    1.3288    0.1452 C   0  0  0  0  0  0  0  0  0  0  0  0
    1.0176    0.1754   -0.0741 C   0  0  0  0  0  0  0  0  0  0  0  0
    2.3623    0.3310   -0.0168 O   0  0  0  0  0  0  0  0  0  0  0  0
    3.2135   -0.7895   -0.2253 C   0  0  0  0  0  0  0  0  0  0  0  0
    0.4043   -1.0829   -0.3408 C   0  0  0  0  0  0  0  0  0  0  0  0
   -0.9682   -1.1524   -0.3802 C   0  0  0  0  0  0  0  0  0  0  0  0
   -3.5726    4.1025    0.6581 H   0  0  0  0  0  0  0  0  0  0  0  0
    0.8161    2.2393    0.3407 H   0  0  0  0  0  0  0  0  0  0  0  0
    4.2321   -0.4113   -0.1290 H   0  0  0  0  0  0  0  0  0  0  0  0
    3.0822   -1.2162   -1.2272 H   0  0  0  0  0  0  0  0  0  0  0  0
    3.0463   -1.5696    0.5273 H   0  0  0  0  0  0  0  0  0  0  0  0
    0.9958   -1.9735   -0.5110 H   0  0  0  0  0  0  0  0  0  0  0  0
   -1.4824   -2.0893   -0.5810 H   0  0  0  0  0  0  0  0  0  0  0  0
   -4.3665    4.6621    0.7210 O   0  0  0  0  0  0  0  0  0  0  0  0
   -5.4352    3.8913    0.5092 C   0  0  0  0  0  0  0  0  0  0  0  0
   -5.4389    2.7095    0.2780 O   0  0  0  0  0  0  0  0  0  0  0  0
   -6.7222    4.7388    0.6107 C   0  0  0  0  0  0  0  0  0  0  0  0
   -6.6812    5.7642   -0.2578 F   0  0  0  0  0  0  0  0  0  0  0  0
   -7.7926    3.9891    0.3401 F   0  0  0  0  0  0  0  0  0  0  0  0
   -6.8486    5.2407    1.8523 F   0  0  0  0  0  0  0  0  0  0  0  0
  1  4  2  0  0  0  0
  2  1  1  0  0  0  0
  3  2  1  0  0  0  0
  4  5  1  0  0  0  0
  5 12  1  0  0  0  0
  6  7  1  0  0  0  0
  6  5  2  0  0  0  0
  8 13  1  0  0  0  0
  8  7  1  0  0  0  0
  8 15  1  0  0  0  0
  9  6  1  0  0  0  0
 10  9  2  0  0  0  0
 10  1  1  0  0  0  0
 11 18  1  0  0  0  0
 14  8  1  0  0  0  0
 16  9  1  0  0  0  0
 17 10  1  0  0  0  0
 19 21  1  0  0  0  0
 19 18  1  0  0  0  0
 20 19  2  0  0  0  0
 21 24  1  0  0  0  0
 22 21  1  0  0  0  0
 23 21  1  0  0  0  0
M  RAD  3   2   2   3   3   4   2
M  END
