Coordinates from ORCA-job 4-MeOPhN2+~CF3COO-_B3LYPG-6-31G_dp-CH-Scan-d09-49-n800
 OpenBabel11261919493D

 24 23  0  0  0  0  0  0  0  0999 V2000
   -1.9232    0.0423   -0.2010 C   0  0  0  0  0  0  0  0  0  0  0  0
   -3.2855   -0.1365   -0.2792 N   0  0  0  0  0  0  0  0  0  0  0  0
   -4.4003   -0.2384   -0.3340 N   0  0  0  0  0  0  0  0  0  0  0  0
   -1.5089    1.3669    0.0795 C   0  0  0  0  0  0  0  0  0  0  0  0
   -0.1096    1.4481    0.1428 C   0  0  0  0  0  0  0  0  0  0  0  0
    0.7490    0.3523   -0.0473 C   0  0  0  0  0  0  0  0  0  0  0  0
    2.0730    0.6074    0.0528 O   0  0  0  0  0  0  0  0  0  0  0  0
    3.0128   -0.4485   -0.1168 C   0  0  0  0  0  0  0  0  0  0  0  0
    0.2357   -0.9454   -0.3279 C   0  0  0  0  0  0  0  0  0  0  0  0
   -1.1267   -1.1145   -0.4084 C   0  0  0  0  0  0  0  0  0  0  0  0
   -3.2150    3.3481    0.4242 H   0  0  0  0  0  0  0  0  0  0  0  0
    0.3797    2.3988    0.3522 H   0  0  0  0  0  0  0  0  0  0  0  0
    3.9955    0.0046    0.0184 H   0  0  0  0  0  0  0  0  0  0  0  0
    2.9526   -0.8842   -1.1212 H   0  0  0  0  0  0  0  0  0  0  0  0
    2.8725   -1.2365    0.6327 H   0  0  0  0  0  0  0  0  0  0  0  0
    0.8938   -1.7918   -0.4771 H   0  0  0  0  0  0  0  0  0  0  0  0
   -1.5636   -2.0868   -0.6213 H   0  0  0  0  0  0  0  0  0  0  0  0
   -3.8791    4.0618    0.5484 O   0  0  0  0  0  0  0  0  0  0  0  0
   -5.0953    3.5422    0.4660 C   0  0  0  0  0  0  0  0  0  0  0  0
   -5.3922    2.3874    0.2711 O   0  0  0  0  0  0  0  0  0  0  0  0
   -6.1562    4.6500    0.6525 C   0  0  0  0  0  0  0  0  0  0  0  0
   -6.0412    5.5748   -0.3188 F   0  0  0  0  0  0  0  0  0  0  0  0
   -7.3868    4.1326    0.6038 F   0  0  0  0  0  0  0  0  0  0  0  0
   -5.9956    5.2639    1.8389 F   0  0  0  0  0  0  0  0  0  0  0  0
  1  4  2  0  0  0  0
  2  1  1  0  0  0  0
  3  2  1  0  0  0  0
  4  5  1  0  0  0  0
  5 12  1  0  0  0  0
  6  7  1  0  0  0  0
  6  5  2  0  0  0  0
  8 13  1  0  0  0  0
  8  7  1  0  0  0  0
  8 15  1  0  0  0  0
  9  6  1  0  0  0  0
 10  9  2  0  0  0  0
 10  1  1  0  0  0  0
 11 18  1  0  0  0  0
 14  8  1  0  0  0  0
 16  9  1  0  0  0  0
 17 10  1  0  0  0  0
 19 18  1  0  0  0  0
 19 21  1  0  0  0  0
 20 19  2  0  0  0  0
 21 24  1  0  0  0  0
 22 21  1  0  0  0  0
 23 21  1  0  0  0  0
M  RAD  3   2   2   3   3   4   2
M  END
