Coordinates from ORCA-job 4-MeOPhN2+~CF3COO-_B3LYPG-6-31G_dp-CH-Scan-d09-49-n800
 OpenBabel11261919493D

 24 23  0  0  0  0  0  0  0  0999 V2000
   -2.0423    0.0384   -0.2045 C   0  0  0  0  0  0  0  0  0  0  0  0
   -3.3956   -0.1899   -0.2930 N   0  0  0  0  0  0  0  0  0  0  0  0
   -4.5050   -0.3305   -0.3555 N   0  0  0  0  0  0  0  0  0  0  0  0
   -1.6659    1.3732    0.0838 C   0  0  0  0  0  0  0  0  0  0  0  0
   -0.2726    1.5014    0.1568 C   0  0  0  0  0  0  0  0  0  0  0  0
    0.6228    0.4343   -0.0321 C   0  0  0  0  0  0  0  0  0  0  0  0
    1.9352    0.7327    0.0774 O   0  0  0  0  0  0  0  0  0  0  0  0
    2.9113   -0.2913   -0.0887 C   0  0  0  0  0  0  0  0  0  0  0  0
    0.1520   -0.8767   -0.3204 C   0  0  0  0  0  0  0  0  0  0  0  0
   -1.2041   -1.0878   -0.4101 C   0  0  0  0  0  0  0  0  0  0  0  0
   -3.0596    3.0065    0.3731 H   0  0  0  0  0  0  0  0  0  0  0  0
    0.1815    2.4671    0.3734 H   0  0  0  0  0  0  0  0  0  0  0  0
    3.8770    0.1942    0.0547 H   0  0  0  0  0  0  0  0  0  0  0  0
    2.8717   -0.7249   -1.0949 H   0  0  0  0  0  0  0  0  0  0  0  0
    2.7915   -1.0854    0.6578 H   0  0  0  0  0  0  0  0  0  0  0  0
    0.8366   -1.7018   -0.4688 H   0  0  0  0  0  0  0  0  0  0  0  0
   -1.6084   -2.0724   -0.6292 H   0  0  0  0  0  0  0  0  0  0  0  0
   -3.6746    3.7854    0.5105 O   0  0  0  0  0  0  0  0  0  0  0  0
   -4.9285    3.3887    0.4418 C   0  0  0  0  0  0  0  0  0  0  0  0
   -5.3487    2.2691    0.2453 O   0  0  0  0  0  0  0  0  0  0  0  0
   -5.8817    4.5889    0.6436 C   0  0  0  0  0  0  0  0  0  0  0  0
   -5.7131    5.4919   -0.3419 F   0  0  0  0  0  0  0  0  0  0  0  0
   -7.1568    4.1864    0.6339 F   0  0  0  0  0  0  0  0  0  0  0  0
   -5.6373    5.2009    1.8175 F   0  0  0  0  0  0  0  0  0  0  0  0
  1  4  2  0  0  0  0
  2  1  1  0  0  0  0
  3  2  1  0  0  0  0
  4  5  1  0  0  0  0
  5 12  1  0  0  0  0
  6  7  1  0  0  0  0
  6  5  2  0  0  0  0
  8 13  1  0  0  0  0
  8  7  1  0  0  0  0
  8 15  1  0  0  0  0
  9  6  1  0  0  0  0
 10  9  2  0  0  0  0
 10  1  1  0  0  0  0
 11 18  1  0  0  0  0
 14  8  1  0  0  0  0
 16  9  1  0  0  0  0
 17 10  1  0  0  0  0
 19 18  1  0  0  0  0
 19 21  1  0  0  0  0
 20 19  2  0  0  0  0
 21 24  1  0  0  0  0
 22 21  1  0  0  0  0
 23 21  1  0  0  0  0
M  RAD  3   2   2   3   3   4   2
M  END
