Coordinates from ORCA-job 4-MeOPhN2+~CF3COO-_B3LYPG-6-31G_dp-CH-Scan-d09-49-n800
 OpenBabel11261919493D

 24 23  0  0  0  0  0  0  0  0999 V2000
   -2.0649    0.0375   -0.2044 C   0  0  0  0  0  0  0  0  0  0  0  0
   -3.4163   -0.2003   -0.2948 N   0  0  0  0  0  0  0  0  0  0  0  0
   -4.5247   -0.3468   -0.3583 N   0  0  0  0  0  0  0  0  0  0  0  0
   -1.6955    1.3742    0.0849 C   0  0  0  0  0  0  0  0  0  0  0  0
   -0.3036    1.5113    0.1594 C   0  0  0  0  0  0  0  0  0  0  0  0
    0.5986    0.4497   -0.0292 C   0  0  0  0  0  0  0  0  0  0  0  0
    1.9087    0.7565    0.0817 O   0  0  0  0  0  0  0  0  0  0  0  0
    2.8917   -0.2613   -0.0841 C   0  0  0  0  0  0  0  0  0  0  0  0
    0.1360   -0.8636   -0.3183 C   0  0  0  0  0  0  0  0  0  0  0  0
   -1.2189   -1.0826   -0.4094 C   0  0  0  0  0  0  0  0  0  0  0  0
   -3.0290    2.9415    0.3627 H   0  0  0  0  0  0  0  0  0  0  0  0
    0.1436    2.4799    0.3769 H   0  0  0  0  0  0  0  0  0  0  0  0
    3.8539    0.2306    0.0603 H   0  0  0  0  0  0  0  0  0  0  0  0
    2.8555   -0.6946   -1.0904 H   0  0  0  0  0  0  0  0  0  0  0  0
    2.7763   -1.0562    0.6622 H   0  0  0  0  0  0  0  0  0  0  0  0
    0.8255   -1.6847   -0.4665 H   0  0  0  0  0  0  0  0  0  0  0  0
   -1.6170   -2.0695   -0.6292 H   0  0  0  0  0  0  0  0  0  0  0  0
   -3.6374    3.7337    0.5029 O   0  0  0  0  0  0  0  0  0  0  0  0
   -4.8964    3.3604    0.4363 C   0  0  0  0  0  0  0  0  0  0  0  0
   -5.3396    2.2488    0.2391 O   0  0  0  0  0  0  0  0  0  0  0  0
   -5.8292    4.5763    0.6416 C   0  0  0  0  0  0  0  0  0  0  0  0
   -5.6485    5.4777   -0.3436 F   0  0  0  0  0  0  0  0  0  0  0  0
   -7.1116    4.1963    0.6353 F   0  0  0  0  0  0  0  0  0  0  0  0
   -5.5717    5.1838    1.8154 F   0  0  0  0  0  0  0  0  0  0  0  0
  1  4  2  0  0  0  0
  2  1  1  0  0  0  0
  3  2  1  0  0  0  0
  4  5  1  0  0  0  0
  5 12  1  0  0  0  0
  6  7  1  0  0  0  0
  6  5  2  0  0  0  0
  8 13  1  0  0  0  0
  8  7  1  0  0  0  0
  8 15  1  0  0  0  0
  9  6  1  0  0  0  0
 10  9  2  0  0  0  0
 10  1  1  0  0  0  0
 11 18  1  0  0  0  0
 14  8  1  0  0  0  0
 16  9  1  0  0  0  0
 17 10  1  0  0  0  0
 19 18  1  0  0  0  0
 19 21  1  0  0  0  0
 20 19  2  0  0  0  0
 21 24  1  0  0  0  0
 22 21  1  0  0  0  0
 23 21  1  0  0  0  0
M  RAD  3   2   2   3   3   4   2
M  END
