Coordinates from ORCA-job 4-MeOPhN2+~CF3COO-_B3LYPG-6-31G_dp-CH-Scan-d09-49-n800
 OpenBabel11261919493D

 24 23  0  0  0  0  0  0  0  0999 V2000
   -2.0309    0.0390   -0.2043 C   0  0  0  0  0  0  0  0  0  0  0  0
   -3.3851   -0.1845   -0.2917 N   0  0  0  0  0  0  0  0  0  0  0  0
   -4.4950   -0.3224   -0.3535 N   0  0  0  0  0  0  0  0  0  0  0  0
   -1.6508    1.3728    0.0833 C   0  0  0  0  0  0  0  0  0  0  0  0
   -0.2569    1.4965    0.1554 C   0  0  0  0  0  0  0  0  0  0  0  0
    0.6349    0.4265   -0.0336 C   0  0  0  0  0  0  0  0  0  0  0  0
    1.9486    0.7207    0.0751 O   0  0  0  0  0  0  0  0  0  0  0  0
    2.9212   -0.3065   -0.0913 C   0  0  0  0  0  0  0  0  0  0  0  0
    0.1601   -0.8832   -0.3213 C   0  0  0  0  0  0  0  0  0  0  0  0
   -1.1968   -1.0903   -0.4101 C   0  0  0  0  0  0  0  0  0  0  0  0
   -3.0748    3.0391    0.3784 H   0  0  0  0  0  0  0  0  0  0  0  0
    0.2007    2.4608    0.3714 H   0  0  0  0  0  0  0  0  0  0  0  0
    3.8885    0.1759    0.0515 H   0  0  0  0  0  0  0  0  0  0  0  0
    2.8797   -0.7403   -1.0973 H   0  0  0  0  0  0  0  0  0  0  0  0
    2.7992   -1.1000    0.6554 H   0  0  0  0  0  0  0  0  0  0  0  0
    0.8421   -1.7104   -0.4698 H   0  0  0  0  0  0  0  0  0  0  0  0
   -1.6041   -2.0738   -0.6287 H   0  0  0  0  0  0  0  0  0  0  0  0
   -3.6936    3.8115    0.5145 O   0  0  0  0  0  0  0  0  0  0  0  0
   -4.9446    3.4031    0.4440 C   0  0  0  0  0  0  0  0  0  0  0  0
   -5.3532    2.2798    0.2471 O   0  0  0  0  0  0  0  0  0  0  0  0
   -5.9082    4.5951    0.6445 C   0  0  0  0  0  0  0  0  0  0  0  0
   -5.7451    5.4998   -0.3402 F   0  0  0  0  0  0  0  0  0  0  0  0
   -7.1795    4.1813    0.6320 F   0  0  0  0  0  0  0  0  0  0  0  0
   -5.6710    5.2082    1.8192 F   0  0  0  0  0  0  0  0  0  0  0  0
  1  4  2  0  0  0  0
  2  1  1  0  0  0  0
  3  2  1  0  0  0  0
  4  5  1  0  0  0  0
  5 12  1  0  0  0  0
  6  7  1  0  0  0  0
  6  5  2  0  0  0  0
  8 13  1  0  0  0  0
  8  7  1  0  0  0  0
  8 15  1  0  0  0  0
  9  6  1  0  0  0  0
 10  9  2  0  0  0  0
 10  1  1  0  0  0  0
 11 18  1  0  0  0  0
 14  8  1  0  0  0  0
 16  9  1  0  0  0  0
 17 10  1  0  0  0  0
 19 18  1  0  0  0  0
 19 21  1  0  0  0  0
 20 19  2  0  0  0  0
 21 24  1  0  0  0  0
 22 21  1  0  0  0  0
 23 21  1  0  0  0  0
M  RAD  3   2   2   3   3   4   2
M  END
