Coordinates from ORCA-job 4-MeOPhN2+~CF3COO-_B3LYPG-6-31G_dp-CH-Scan-d09-49-n800
 OpenBabel11261919493D

 24 23  0  0  0  0  0  0  0  0999 V2000
   -2.0373    0.0386   -0.2044 C   0  0  0  0  0  0  0  0  0  0  0  0
   -3.3910   -0.1875   -0.2924 N   0  0  0  0  0  0  0  0  0  0  0  0
   -4.5006   -0.3270   -0.3546 N   0  0  0  0  0  0  0  0  0  0  0  0
   -1.6592    1.3730    0.0836 C   0  0  0  0  0  0  0  0  0  0  0  0
   -0.2656    1.4992    0.1562 C   0  0  0  0  0  0  0  0  0  0  0  0
    0.6282    0.4308   -0.0328 C   0  0  0  0  0  0  0  0  0  0  0  0
    1.9412    0.7274    0.0764 O   0  0  0  0  0  0  0  0  0  0  0  0
    2.9157   -0.2981   -0.0899 C   0  0  0  0  0  0  0  0  0  0  0  0
    0.1556   -0.8795   -0.3208 C   0  0  0  0  0  0  0  0  0  0  0  0
   -1.2009   -1.0889   -0.4101 C   0  0  0  0  0  0  0  0  0  0  0  0
   -3.0664    3.0210    0.3755 H   0  0  0  0  0  0  0  0  0  0  0  0
    0.1900    2.4643    0.3725 H   0  0  0  0  0  0  0  0  0  0  0  0
    3.8821    0.1861    0.0533 H   0  0  0  0  0  0  0  0  0  0  0  0
    2.8753   -0.7317   -1.0960 H   0  0  0  0  0  0  0  0  0  0  0  0
    2.7949   -1.0919    0.6567 H   0  0  0  0  0  0  0  0  0  0  0  0
    0.8391   -1.7056   -0.4693 H   0  0  0  0  0  0  0  0  0  0  0  0
   -1.6065   -2.0730   -0.6289 H   0  0  0  0  0  0  0  0  0  0  0  0
   -3.6830    3.7970    0.5123 O   0  0  0  0  0  0  0  0  0  0  0  0
   -4.9356    3.3951    0.4428 C   0  0  0  0  0  0  0  0  0  0  0  0
   -5.3508    2.2739    0.2461 O   0  0  0  0  0  0  0  0  0  0  0  0
   -5.8935    4.5917    0.6440 C   0  0  0  0  0  0  0  0  0  0  0  0
   -5.7273    5.4954   -0.3412 F   0  0  0  0  0  0  0  0  0  0  0  0
   -7.1669    4.1842    0.6331 F   0  0  0  0  0  0  0  0  0  0  0  0
   -5.6522    5.2042    1.8183 F   0  0  0  0  0  0  0  0  0  0  0  0
  1  4  2  0  0  0  0
  2  1  1  0  0  0  0
  3  2  1  0  0  0  0
  4  5  1  0  0  0  0
  5 12  1  0  0  0  0
  6  7  1  0  0  0  0
  6  5  2  0  0  0  0
  8 13  1  0  0  0  0
  8  7  1  0  0  0  0
  8 15  1  0  0  0  0
  9  6  1  0  0  0  0
 10  9  2  0  0  0  0
 10  1  1  0  0  0  0
 11 18  1  0  0  0  0
 14  8  1  0  0  0  0
 16  9  1  0  0  0  0
 17 10  1  0  0  0  0
 19 18  1  0  0  0  0
 19 21  1  0  0  0  0
 20 19  2  0  0  0  0
 21 24  1  0  0  0  0
 22 21  1  0  0  0  0
 23 21  1  0  0  0  0
M  RAD  3   2   2   3   3   4   2
M  END
