Coordinates from ORCA-job 4-MeOPhN2+~CF3COO-_B3LYPG-6-31G_dp-CH-Scan-d09-49-n800
 OpenBabel11261919493D

 24 23  0  0  0  0  0  0  0  0999 V2000
   -1.4548    0.1379   -0.2636 C   0  0  0  0  0  0  0  0  0  0  0  0
   -2.8313    0.1790   -0.3367 N   0  0  0  0  0  0  0  0  0  0  0  0
   -3.9487    0.2726   -0.3886 N   0  0  0  0  0  0  0  0  0  0  0  0
   -0.8612    1.4058   -0.0570 C   0  0  0  0  0  0  0  0  0  0  0  0
    0.5394    1.2702    0.0045 C   0  0  0  0  0  0  0  0  0  0  0  0
    1.2218    0.0507   -0.1220 C   0  0  0  0  0  0  0  0  0  0  0  0
    2.5737    0.1070   -0.0364 O   0  0  0  0  0  0  0  0  0  0  0  0
    3.3395   -1.0862   -0.1507 C   0  0  0  0  0  0  0  0  0  0  0  0
    0.5199   -1.1728   -0.3289 C   0  0  0  0  0  0  0  0  0  0  0  0
   -0.8525   -1.1412   -0.4034 C   0  0  0  0  0  0  0  0  0  0  0  0
   -3.9101    4.7080    0.5447 H   0  0  0  0  0  0  0  0  0  0  0  0
    1.1717    2.1454    0.1605 H   0  0  0  0  0  0  0  0  0  0  0  0
    4.3820   -0.7819   -0.0473 H   0  0  0  0  0  0  0  0  0  0  0  0
    3.2002   -1.5646   -1.1282 H   0  0  0  0  0  0  0  0  0  0  0  0
    3.0929   -1.8021    0.6428 H   0  0  0  0  0  0  0  0  0  0  0  0
    1.0463   -2.1138   -0.4277 H   0  0  0  0  0  0  0  0  0  0  0  0
   -1.4330   -2.0472   -0.5612 H   0  0  0  0  0  0  0  0  0  0  0  0
   -4.7849    5.1101    0.6834 O   0  0  0  0  0  0  0  0  0  0  0  0
   -5.7029    4.1481    0.5416 C   0  0  0  0  0  0  0  0  0  0  0  0
   -5.4951    2.9901    0.2880 O   0  0  0  0  0  0  0  0  0  0  0  0
   -7.1149    4.7351    0.7548 C   0  0  0  0  0  0  0  0  0  0  0  0
   -7.3479    5.7235   -0.1259 F   0  0  0  0  0  0  0  0  0  0  0  0
   -8.0387    3.7864    0.5911 F   0  0  0  0  0  0  0  0  0  0  0  0
   -7.2259    5.2385    1.9967 F   0  0  0  0  0  0  0  0  0  0  0  0
  1  4  2  0  0  0  0
  2  1  1  0  0  0  0
  3  2  1  0  0  0  0
  4  5  1  0  0  0  0
  5 12  1  0  0  0  0
  6  7  1  0  0  0  0
  6  5  2  0  0  0  0
  8 13  1  0  0  0  0
  8  7  1  0  0  0  0
  8 15  1  0  0  0  0
  9  6  1  0  0  0  0
 10  9  2  0  0  0  0
 10  1  1  0  0  0  0
 11 18  1  0  0  0  0
 14  8  1  0  0  0  0
 16  9  1  0  0  0  0
 17 10  1  0  0  0  0
 19 18  1  0  0  0  0
 19 21  1  0  0  0  0
 20 19  2  0  0  0  0
 21 24  1  0  0  0  0
 22 21  1  0  0  0  0
 23 21  1  0  0  0  0
M  RAD  3   2   2   3   3   4   2
M  END
