Coordinates from ORCA-job 4-MeOPhN2+~CF3COO-_B3LYPG-6-31G_dp-CH-Scan-d09-49-n800
 OpenBabel11261919493D

 24 23  0  0  0  0  0  0  0  0999 V2000
   -1.9702    0.0409   -0.2031 C   0  0  0  0  0  0  0  0  0  0  0  0
   -3.3292   -0.1572   -0.2849 N   0  0  0  0  0  0  0  0  0  0  0  0
   -4.4419   -0.2760   -0.3425 N   0  0  0  0  0  0  0  0  0  0  0  0
   -1.5708    1.3696    0.0804 C   0  0  0  0  0  0  0  0  0  0  0  0
   -0.1737    1.4695    0.1476 C   0  0  0  0  0  0  0  0  0  0  0  0
    0.6994    0.3848   -0.0417 C   0  0  0  0  0  0  0  0  0  0  0  0
    2.0191    0.6568    0.0625 O   0  0  0  0  0  0  0  0  0  0  0  0
    2.9733   -0.3869   -0.1049 C   0  0  0  0  0  0  0  0  0  0  0  0
    0.2029   -0.9184   -0.3254 C   0  0  0  0  0  0  0  0  0  0  0  0
   -1.1572   -1.1042   -0.4097 C   0  0  0  0  0  0  0  0  0  0  0  0
   -3.1540    3.2136    0.4043 H   0  0  0  0  0  0  0  0  0  0  0  0
    0.3020    2.4262    0.3599 H   0  0  0  0  0  0  0  0  0  0  0  0
    3.9493    0.0789    0.0342 H   0  0  0  0  0  0  0  0  0  0  0  0
    2.9218   -0.8219   -1.1101 H   0  0  0  0  0  0  0  0  0  0  0  0
    2.8403   -1.1772    0.6433 H   0  0  0  0  0  0  0  0  0  0  0  0
    0.8715   -1.7565   -0.4743 H   0  0  0  0  0  0  0  0  0  0  0  0
   -1.5812   -2.0815   -0.6252 H   0  0  0  0  0  0  0  0  0  0  0  0
   -3.7969    3.9526    0.5340 O   0  0  0  0  0  0  0  0  0  0  0  0
   -5.0298    3.4811    0.4564 C   0  0  0  0  0  0  0  0  0  0  0  0
   -5.3755    2.3390    0.2596 O   0  0  0  0  0  0  0  0  0  0  0  0
   -6.0488    4.6268    0.6497 C   0  0  0  0  0  0  0  0  0  0  0  0
   -5.9138    5.5421   -0.3288 F   0  0  0  0  0  0  0  0  0  0  0  0
   -7.2983    4.1539    0.6189 F   0  0  0  0  0  0  0  0  0  0  0  0
   -5.8531    5.2425    1.8301 F   0  0  0  0  0  0  0  0  0  0  0  0
  1  4  2  0  0  0  0
  2  1  1  0  0  0  0
  3  2  1  0  0  0  0
  4  5  1  0  0  0  0
  5 12  1  0  0  0  0
  6  7  1  0  0  0  0
  6  5  2  0  0  0  0
  8 13  1  0  0  0  0
  8  7  1  0  0  0  0
  8 15  1  0  0  0  0
  9  6  1  0  0  0  0
 10  9  2  0  0  0  0
 10  1  1  0  0  0  0
 11 18  1  0  0  0  0
 14  8  1  0  0  0  0
 16  9  1  0  0  0  0
 17 10  1  0  0  0  0
 19 18  1  0  0  0  0
 19 21  1  0  0  0  0
 20 19  2  0  0  0  0
 21 24  1  0  0  0  0
 22 21  1  0  0  0  0
 23 21  1  0  0  0  0
M  RAD  3   2   2   3   3   4   2
M  END
