Coordinates from ORCA-job 4-MeOPhN2+~CF3COO-_B3LYPG-6-31G_dp-CH-Scan-d09-49-n800
 OpenBabel11261919493D

 24 23  0  0  0  0  0  0  0  0999 V2000
   -2.0981    0.0379   -0.2083 C   0  0  0  0  0  0  0  0  0  0  0  0
   -3.4467   -0.2128   -0.3029 N   0  0  0  0  0  0  0  0  0  0  0  0
   -4.5536   -0.3673   -0.3690 N   0  0  0  0  0  0  0  0  0  0  0  0
   -1.7382    1.3773    0.0805 C   0  0  0  0  0  0  0  0  0  0  0  0
   -0.3486    1.5271    0.1593 C   0  0  0  0  0  0  0  0  0  0  0  0
    0.5633    0.4728   -0.0256 C   0  0  0  0  0  0  0  0  0  0  0  0
    1.8697    0.7911    0.0886 O   0  0  0  0  0  0  0  0  0  0  0  0
    2.8623   -0.2183   -0.0735 C   0  0  0  0  0  0  0  0  0  0  0  0
    0.1119   -0.8440   -0.3147 C   0  0  0  0  0  0  0  0  0  0  0  0
   -1.2411   -1.0740   -0.4093 C   0  0  0  0  0  0  0  0  0  0  0  0
   -2.9814    2.8457    0.3385 H   0  0  0  0  0  0  0  0  0  0  0  0
    0.0883    2.5001    0.3772 H   0  0  0  0  0  0  0  0  0  0  0  0
    3.8196    0.2824    0.0727 H   0  0  0  0  0  0  0  0  0  0  0  0
    2.8322   -0.6528   -1.0794 H   0  0  0  0  0  0  0  0  0  0  0  0
    2.7518   -1.0131    0.6735 H   0  0  0  0  0  0  0  0  0  0  0  0
    0.8082   -1.6599   -0.4601 H   0  0  0  0  0  0  0  0  0  0  0  0
   -1.6304   -2.0642   -0.6293 H   0  0  0  0  0  0  0  0  0  0  0  0
   -3.5833    3.6601    0.4825 O   0  0  0  0  0  0  0  0  0  0  0  0
   -4.8484    3.3185    0.4310 C   0  0  0  0  0  0  0  0  0  0  0  0
   -5.3245    2.2172    0.2422 O   0  0  0  0  0  0  0  0  0  0  0  0
   -5.7521    4.5557    0.6420 C   0  0  0  0  0  0  0  0  0  0  0  0
   -5.5603    5.4521   -0.3462 F   0  0  0  0  0  0  0  0  0  0  0  0
   -7.0440    4.2071    0.6479 F   0  0  0  0  0  0  0  0  0  0  0  0
   -5.4712    5.1600    1.8125 F   0  0  0  0  0  0  0  0  0  0  0  0
  1  4  2  0  0  0  0
  2  1  1  0  0  0  0
  3  2  1  0  0  0  0
  4  5  1  0  0  0  0
  5 12  1  0  0  0  0
  6  7  1  0  0  0  0
  6  5  2  0  0  0  0
  8 13  1  0  0  0  0
  8  7  1  0  0  0  0
  8 15  1  0  0  0  0
  9  6  1  0  0  0  0
 10  9  2  0  0  0  0
 10  1  1  0  0  0  0
 11 18  1  0  0  0  0
 14  8  1  0  0  0  0
 16  9  1  0  0  0  0
 17 10  1  0  0  0  0
 19 18  1  0  0  0  0
 19 21  1  0  0  0  0
 20 19  2  0  0  0  0
 21 23  1  0  0  0  0
 21 24  1  0  0  0  0
 22 21  1  0  0  0  0
M  RAD  3   2   2   3   3   4   2
M  END
