Coordinates from ORCA-job 4-MeOPhN2+~CF3COO-_B3LYPG-6-31G_dp-CH-Scan-d09-49-n800
 OpenBabel11261919493D

 24 23  0  0  0  0  0  0  0  0999 V2000
   -1.5363    0.1132   -0.2767 C   0  0  0  0  0  0  0  0  0  0  0  0
   -2.9126    0.1136   -0.3616 N   0  0  0  0  0  0  0  0  0  0  0  0
   -4.0317    0.1716   -0.4231 N   0  0  0  0  0  0  0  0  0  0  0  0
   -0.9796    1.3954   -0.0549 C   0  0  0  0  0  0  0  0  0  0  0  0
    0.4235    1.2985    0.0186 C   0  0  0  0  0  0  0  0  0  0  0  0
    1.1411    0.0995   -0.1100 C   0  0  0  0  0  0  0  0  0  0  0  0
    2.4896    0.1925   -0.0095 O   0  0  0  0  0  0  0  0  0  0  0  0
    3.2892   -0.9786   -0.1208 C   0  0  0  0  0  0  0  0  0  0  0  0
    0.4756   -1.1411   -0.3337 C   0  0  0  0  0  0  0  0  0  0  0  0
   -0.8963   -1.1470   -0.4213 C   0  0  0  0  0  0  0  0  0  0  0  0
   -3.7715    4.5121    0.4862 H   0  0  0  0  0  0  0  0  0  0  0  0
    1.0296    2.1898    0.1870 H   0  0  0  0  0  0  0  0  0  0  0  0
    4.3216   -0.6468   -0.0020 H   0  0  0  0  0  0  0  0  0  0  0  0
    3.1756   -1.4544   -1.1029 H   0  0  0  0  0  0  0  0  0  0  0  0
    3.0517   -1.7058    0.6651 H   0  0  0  0  0  0  0  0  0  0  0  0
    1.0288   -2.0664   -0.4353 H   0  0  0  0  0  0  0  0  0  0  0  0
   -1.4497   -2.0674   -0.5925 H   0  0  0  0  0  0  0  0  0  0  0  0
   -4.6193    4.9627    0.6424 O   0  0  0  0  0  0  0  0  0  0  0  0
   -5.5939    4.0560    0.5229 C   0  0  0  0  0  0  0  0  0  0  0  0
   -5.4610    2.8875    0.2665 O   0  0  0  0  0  0  0  0  0  0  0  0
   -6.9646    4.7243    0.7658 C   0  0  0  0  0  0  0  0  0  0  0  0
   -7.1623    5.7188   -0.1171 F   0  0  0  0  0  0  0  0  0  0  0  0
   -7.9450    3.8291    0.6314 F   0  0  0  0  0  0  0  0  0  0  0  0
   -7.0170    5.2414    2.0057 F   0  0  0  0  0  0  0  0  0  0  0  0
  1  4  2  0  0  0  0
  2  1  1  0  0  0  0
  3  2  1  0  0  0  0
  4  5  1  0  0  0  0
  5 12  1  0  0  0  0
  6  7  1  0  0  0  0
  6  5  2  0  0  0  0
  8  7  1  0  0  0  0
  8 13  1  0  0  0  0
  8 15  1  0  0  0  0
  9  6  1  0  0  0  0
 10  9  2  0  0  0  0
 10  1  1  0  0  0  0
 11 18  1  0  0  0  0
 14  8  1  0  0  0  0
 16  9  1  0  0  0  0
 17 10  1  0  0  0  0
 19 18  1  0  0  0  0
 19 21  1  0  0  0  0
 20 19  2  0  0  0  0
 21 24  1  0  0  0  0
 22 21  1  0  0  0  0
 23 21  1  0  0  0  0
M  RAD  3   2   2   3   3   4   2
M  END
