Coordinates from ORCA-job 4-MeOPhN2+~CF3COO-_B3LYPG-6-31G_dp-CH-Scan-d09-49-n800
 OpenBabel11261919493D

 24 23  0  0  0  0  0  0  0  0999 V2000
   -2.2715    0.4821    0.3668 C   0  0  0  0  0  0  0  0  0  0  0  0
   -3.6687    0.3207    0.4534 N   0  0  0  0  0  0  0  0  0  0  0  0
   -4.5505   -0.3775    0.3672 N   0  0  0  0  0  0  0  0  0  0  0  0
   -1.6204    1.6036    0.8861 C   0  0  0  0  0  0  0  0  0  0  0  0
   -0.2456    1.6781    0.8030 C   0  0  0  0  0  0  0  0  0  0  0  0
    0.4852    0.6398    0.1905 C   0  0  0  0  0  0  0  0  0  0  0  0
    1.8200    0.8138    0.1506 O   0  0  0  0  0  0  0  0  0  0  0  0
    2.6351   -0.1791   -0.4707 C   0  0  0  0  0  0  0  0  0  0  0  0
   -0.1841   -0.4853   -0.3303 C   0  0  0  0  0  0  0  0  0  0  0  0
   -1.5653   -0.5686   -0.2381 C   0  0  0  0  0  0  0  0  0  0  0  0
   -2.3572    2.4890    1.3979 H   0  0  0  0  0  0  0  0  0  0  0  0
    0.2960    2.5314    1.1944 H   0  0  0  0  0  0  0  0  0  0  0  0
    3.6581    0.1896   -0.3942 H   0  0  0  0  0  0  0  0  0  0  0  0
    2.3712   -0.3059   -1.5268 H   0  0  0  0  0  0  0  0  0  0  0  0
    2.5557   -1.1409    0.0489 H   0  0  0  0  0  0  0  0  0  0  0  0
    0.3615   -1.2911   -0.8043 H   0  0  0  0  0  0  0  0  0  0  0  0
   -2.0961   -1.4270   -0.6349 H   0  0  0  0  0  0  0  0  0  0  0  0
   -4.3389    2.2873    1.0909 O   0  0  0  0  0  0  0  0  0  0  0  0
   -4.6012    2.8105   -0.0509 C   0  0  0  0  0  0  0  0  0  0  0  0
   -4.2998    2.4012   -1.1700 O   0  0  0  0  0  0  0  0  0  0  0  0
   -5.3931    4.1427    0.0843 C   0  0  0  0  0  0  0  0  0  0  0  0
   -5.7019    4.6698   -1.1096 F   0  0  0  0  0  0  0  0  0  0  0  0
   -6.5433    3.9576    0.7649 F   0  0  0  0  0  0  0  0  0  0  0  0
   -4.6598    5.0568    0.7615 F   0  0  0  0  0  0  0  0  0  0  0  0
  1  2  1  0  0  0  0
  1  4  2  0  0  0  0
  3  2  2  0  0  0  0
  4 11  1  0  0  0  0
  5  4  1  0  0  0  0
  5 12  1  0  0  0  0
  6  5  2  0  0  0  0
  7  6  1  0  0  0  0
  8 13  1  0  0  0  0
  8 15  1  0  0  0  0
  8  7  1  0  0  0  0
  9 10  2  0  0  0  0
  9  6  1  0  0  0  0
 10  1  1  0  0  0  0
 14  8  1  0  0  0  0
 16  9  1  0  0  0  0
 17 10  1  0  0  0  0
 19 21  1  0  0  0  0
 19 18  1  0  0  0  0
 20 19  2  0  0  0  0
 21 24  1  0  0  0  0
 21 23  1  0  0  0  0
 22 21  1  0  0  0  0
M  RAD  2   3   2  18   2
M  END
