Coordinates from ORCA-job 4-MeOPhN2+~CF3COO-_B3LYPG-6-31G_dp-CH-Scan-d09-49-n800
 OpenBabel11261919493D

 24 23  0  0  0  0  0  0  0  0999 V2000
   -1.7136    0.0577   -0.1513 C   0  0  0  0  0  0  0  0  0  0  0  0
   -3.0878   -0.0325   -0.1954 N   0  0  0  0  0  0  0  0  0  0  0  0
   -4.2090   -0.0565   -0.2220 N   0  0  0  0  0  0  0  0  0  0  0  0
   -1.2261    1.3584    0.1222 C   0  0  0  0  0  0  0  0  0  0  0  0
    0.1804    1.3509    0.1474 C   0  0  0  0  0  0  0  0  0  0  0  0
    0.9675    0.2087   -0.0687 C   0  0  0  0  0  0  0  0  0  0  0  0
    2.3090    0.3841   -0.0057 O   0  0  0  0  0  0  0  0  0  0  0  0
    3.1778   -0.7239   -0.2097 C   0  0  0  0  0  0  0  0  0  0  0  0
    0.3733   -1.0581   -0.3376 C   0  0  0  0  0  0  0  0  0  0  0  0
   -0.9978   -1.1476   -0.3823 C   0  0  0  0  0  0  0  0  0  0  0  0
   -3.4992    3.9574    0.6182 H   0  0  0  0  0  0  0  0  0  0  0  0
    0.7334    2.2697    0.3453 H   0  0  0  0  0  0  0  0  0  0  0  0
    4.1901   -0.3306   -0.1080 H   0  0  0  0  0  0  0  0  0  0  0  0
    3.0580   -1.1523   -1.2123 H   0  0  0  0  0  0  0  0  0  0  0  0
    3.0179   -1.5062    0.5421 H   0  0  0  0  0  0  0  0  0  0  0  0
    0.9782   -1.9401   -0.5054 H   0  0  0  0  0  0  0  0  0  0  0  0
   -1.4974   -2.0919   -0.5851 H   0  0  0  0  0  0  0  0  0  0  0  0
   -4.2690    4.5490    0.6920 O   0  0  0  0  0  0  0  0  0  0  0  0
   -5.3714    3.8243    0.4989 C   0  0  0  0  0  0  0  0  0  0  0  0
   -5.4315    2.6426    0.2716 O   0  0  0  0  0  0  0  0  0  0  0  0
   -6.6192    4.7269    0.6153 C   0  0  0  0  0  0  0  0  0  0  0  0
   -6.5486    5.7435   -0.2618 F   0  0  0  0  0  0  0  0  0  0  0  0
   -7.7257    4.0227    0.3678 F   0  0  0  0  0  0  0  0  0  0  0  0
   -6.7039    5.2426    1.8548 F   0  0  0  0  0  0  0  0  0  0  0  0
  1  4  2  0  0  0  0
  2  1  1  0  0  0  0
  3  2  1  0  0  0  0
  4  5  1  0  0  0  0
  5 12  1  0  0  0  0
  6  7  1  0  0  0  0
  6  5  2  0  0  0  0
  8 13  1  0  0  0  0
  8  7  1  0  0  0  0
  8 15  1  0  0  0  0
  9  6  1  0  0  0  0
 10  9  2  0  0  0  0
 10  1  1  0  0  0  0
 11 18  1  0  0  0  0
 14  8  1  0  0  0  0
 16  9  1  0  0  0  0
 17 10  1  0  0  0  0
 19 21  1  0  0  0  0
 19 18  1  0  0  0  0
 20 19  2  0  0  0  0
 21 24  1  0  0  0  0
 22 21  1  0  0  0  0
 23 21  1  0  0  0  0
M  RAD  3   2   2   3   3   4   2
M  END
