Coordinates from ORCA-job 4-MeOPhN2+~CF3COO-_B3LYPG-6-31G_dp-CH-Scan-d09-49-n800
 OpenBabel11261919493D

 24 23  0  0  0  0  0  0  0  0999 V2000
   -1.4269    0.1505   -0.2594 C   0  0  0  0  0  0  0  0  0  0  0  0
   -2.8031    0.2071   -0.3289 N   0  0  0  0  0  0  0  0  0  0  0  0
   -3.9194    0.3138   -0.3779 N   0  0  0  0  0  0  0  0  0  0  0  0
   -0.8192    1.4123   -0.0574 C   0  0  0  0  0  0  0  0  0  0  0  0
    0.5802    1.2616    0.0005 C   0  0  0  0  0  0  0  0  0  0  0  0
    1.2488    0.0346   -0.1255 C   0  0  0  0  0  0  0  0  0  0  0  0
    2.6016    0.0764   -0.0445 O   0  0  0  0  0  0  0  0  0  0  0  0
    3.3542   -1.1250   -0.1600 C   0  0  0  0  0  0  0  0  0  0  0  0
    0.5330   -1.1817   -0.3274 C   0  0  0  0  0  0  0  0  0  0  0  0
   -0.8391   -1.1355   -0.3979 C   0  0  0  0  0  0  0  0  0  0  0  0
   -3.9582    4.7795    0.5605 H   0  0  0  0  0  0  0  0  0  0  0  0
    1.2224    2.1303    0.1527 H   0  0  0  0  0  0  0  0  0  0  0  0
    4.4003   -0.8317   -0.0613 H   0  0  0  0  0  0  0  0  0  0  0  0
    3.2058   -1.6034   -1.1362 H   0  0  0  0  0  0  0  0  0  0  0  0
    3.1033   -1.8371    0.6356 H   0  0  0  0  0  0  0  0  0  0  0  0
    1.0489   -2.1286   -0.4254 H   0  0  0  0  0  0  0  0  0  0  0  0
   -1.4299   -2.0355   -0.5516 H   0  0  0  0  0  0  0  0  0  0  0  0
   -4.8426    5.1617    0.6945 O   0  0  0  0  0  0  0  0  0  0  0  0
   -5.7374    4.1787    0.5472 C   0  0  0  0  0  0  0  0  0  0  0  0
   -5.5010    3.0260    0.2947 O   0  0  0  0  0  0  0  0  0  0  0  0
   -7.1639    4.7328    0.7520 C   0  0  0  0  0  0  0  0  0  0  0  0
   -7.4149    5.7145   -0.1312 F   0  0  0  0  0  0  0  0  0  0  0  0
   -8.0642    3.7625    0.5846 F   0  0  0  0  0  0  0  0  0  0  0  0
   -7.2932    5.2350    1.9927 F   0  0  0  0  0  0  0  0  0  0  0  0
  1  4  2  0  0  0  0
  2  1  1  0  0  0  0
  3  2  1  0  0  0  0
  4  5  1  0  0  0  0
  5 12  1  0  0  0  0
  6  7  1  0  0  0  0
  6  5  2  0  0  0  0
  8 13  1  0  0  0  0
  8  7  1  0  0  0  0
  8 15  1  0  0  0  0
  9  6  1  0  0  0  0
 10  9  2  0  0  0  0
 10  1  1  0  0  0  0
 11 18  1  0  0  0  0
 14  8  1  0  0  0  0
 16  9  1  0  0  0  0
 17 10  1  0  0  0  0
 19 18  1  0  0  0  0
 19 21  1  0  0  0  0
 20 19  2  0  0  0  0
 21 24  1  0  0  0  0
 22 21  1  0  0  0  0
 23 21  1  0  0  0  0
M  RAD  3   2   2   3   3   4   2
M  END
