Coordinates from ORCA-job 4-MeOPhN2+~CF3COO-_B3LYPG-6-31G_dp-CH-Scan-d09-49-n800
 OpenBabel11261919493D

 24 23  0  0  0  0  0  0  0  0999 V2000
   -1.6784    0.0617   -0.1475 C   0  0  0  0  0  0  0  0  0  0  0  0
   -3.0540   -0.0130   -0.1874 N   0  0  0  0  0  0  0  0  0  0  0  0
   -4.1756   -0.0221   -0.2096 N   0  0  0  0  0  0  0  0  0  0  0  0
   -1.1784    1.3578    0.1248 C   0  0  0  0  0  0  0  0  0  0  0  0
    0.2285    1.3351    0.1459 C   0  0  0  0  0  0  0  0  0  0  0  0
    1.0032    0.1850   -0.0726 C   0  0  0  0  0  0  0  0  0  0  0  0
    2.3469    0.3465   -0.0136 O   0  0  0  0  0  0  0  0  0  0  0  0
    3.2034   -0.7702   -0.2208 C   0  0  0  0  0  0  0  0  0  0  0  0
    0.3955   -1.0759   -0.3400 C   0  0  0  0  0  0  0  0  0  0  0  0
   -0.9766   -1.1513   -0.3808 C   0  0  0  0  0  0  0  0  0  0  0  0
   -3.5516    4.0592    0.6466 H   0  0  0  0  0  0  0  0  0  0  0  0
    0.7919    2.2480    0.3421 H   0  0  0  0  0  0  0  0  0  0  0  0
    4.2202   -0.3875   -0.1229 H   0  0  0  0  0  0  0  0  0  0  0  0
    3.0756   -1.1974   -1.2229 H   0  0  0  0  0  0  0  0  0  0  0  0
    3.0384   -1.5510    0.5315 H   0  0  0  0  0  0  0  0  0  0  0  0
    0.9911   -1.9639   -0.5095 H   0  0  0  0  0  0  0  0  0  0  0  0
   -1.4864   -2.0905   -0.5822 H   0  0  0  0  0  0  0  0  0  0  0  0
   -4.3381    4.6286    0.7128 O   0  0  0  0  0  0  0  0  0  0  0  0
   -5.4172    3.8716    0.5062 C   0  0  0  0  0  0  0  0  0  0  0  0
   -5.4381    2.6895    0.2759 O   0  0  0  0  0  0  0  0  0  0  0  0
   -6.6924    4.7362    0.6121 C   0  0  0  0  0  0  0  0  0  0  0  0
   -6.6421    5.7589   -0.2592 F   0  0  0  0  0  0  0  0  0  0  0  0
   -7.7742    4.0003    0.3484 F   0  0  0  0  0  0  0  0  0  0  0  0
   -6.8063    5.2427    1.8530 F   0  0  0  0  0  0  0  0  0  0  0  0
  1  4  2  0  0  0  0
  2  1  1  0  0  0  0
  3  2  1  0  0  0  0
  4  5  1  0  0  0  0
  5 12  1  0  0  0  0
  6  7  1  0  0  0  0
  6  5  2  0  0  0  0
  8 13  1  0  0  0  0
  8  7  1  0  0  0  0
  8 15  1  0  0  0  0
  9  6  1  0  0  0  0
 10  9  2  0  0  0  0
 10  1  1  0  0  0  0
 11 18  1  0  0  0  0
 14  8  1  0  0  0  0
 16  9  1  0  0  0  0
 17 10  1  0  0  0  0
 19 21  1  0  0  0  0
 19 18  1  0  0  0  0
 20 19  2  0  0  0  0
 21 24  1  0  0  0  0
 22 21  1  0  0  0  0
 23 21  1  0  0  0  0
M  RAD  3   2   2   3   3   4   2
M  END
