Coordinates from ORCA-job 4-MeOPhN2+~CF3COO-_B3LYPG-6-31G_dp-CH-Scan-d09-49-n800
 OpenBabel11261919503D

 24 23  0  0  0  0  0  0  0  0999 V2000
   -1.3767    0.1817   -0.2693 C   0  0  0  0  0  0  0  0  0  0  0  0
   -2.7513    0.2691   -0.3423 N   0  0  0  0  0  0  0  0  0  0  0  0
   -3.8648    0.4011   -0.3939 N   0  0  0  0  0  0  0  0  0  0  0  0
   -0.7417    1.4302   -0.0696 C   0  0  0  0  0  0  0  0  0  0  0  0
    0.6538    1.2484   -0.0073 C   0  0  0  0  0  0  0  0  0  0  0  0
    1.2951    0.0065   -0.1281 C   0  0  0  0  0  0  0  0  0  0  0  0
    2.6484    0.0183   -0.0439 O   0  0  0  0  0  0  0  0  0  0  0  0
    3.3743   -1.1996   -0.1563 C   0  0  0  0  0  0  0  0  0  0  0  0
    0.5529   -1.1942   -0.3281 C   0  0  0  0  0  0  0  0  0  0  0  0
   -0.8177   -1.1177   -0.4023 C   0  0  0  0  0  0  0  0  0  0  0  0
   -4.0492    4.9276    0.5227 H   0  0  0  0  0  0  0  0  0  0  0  0
    1.3148    2.1030    0.1442 H   0  0  0  0  0  0  0  0  0  0  0  0
    4.4266   -0.9294   -0.0570 H   0  0  0  0  0  0  0  0  0  0  0  0
    3.2165   -1.6765   -1.1318 H   0  0  0  0  0  0  0  0  0  0  0  0
    3.1071   -1.9047    0.6404 H   0  0  0  0  0  0  0  0  0  0  0  0
    1.0477   -2.1527   -0.4218 H   0  0  0  0  0  0  0  0  0  0  0  0
   -1.4281   -2.0047   -0.5543 H   0  0  0  0  0  0  0  0  0  0  0  0
   -4.9497    5.2643    0.6712 O   0  0  0  0  0  0  0  0  0  0  0  0
   -5.7940    4.2340    0.5479 C   0  0  0  0  0  0  0  0  0  0  0  0
   -5.5013    3.0936    0.2992 O   0  0  0  0  0  0  0  0  0  0  0  0
   -7.2438    4.7135    0.7753 C   0  0  0  0  0  0  0  0  0  0  0  0
   -7.5661    5.6653   -0.1173 F   0  0  0  0  0  0  0  0  0  0  0  0
   -8.0930    3.6932    0.6422 F   0  0  0  0  0  0  0  0  0  0  0  0
   -7.3745    5.2283    2.0105 F   0  0  0  0  0  0  0  0  0  0  0  0
  1  4  2  0  0  0  0
  2  1  1  0  0  0  0
  3  2  1  0  0  0  0
  4  5  1  0  0  0  0
  5 12  1  0  0  0  0
  6  7  1  0  0  0  0
  6  5  2  0  0  0  0
  8 13  1  0  0  0  0
  8  7  1  0  0  0  0
  8 15  1  0  0  0  0
  9  6  1  0  0  0  0
 10  9  2  0  0  0  0
 10  1  1  0  0  0  0
 11 18  1  0  0  0  0
 14  8  1  0  0  0  0
 16  9  1  0  0  0  0
 17 10  1  0  0  0  0
 19 18  1  0  0  0  0
 19 21  1  0  0  0  0
 20 19  2  0  0  0  0
 21 24  1  0  0  0  0
 22 21  1  0  0  0  0
 23 21  1  0  0  0  0
M  RAD  3   2   2   3   3   4   2
M  END
