Coordinates from ORCA-job 4-MeOPhN2+~CF3COO-_B3LYPG-6-31G_dp-CH-Scan-d09-49-n800
 OpenBabel11261919493D

 24 23  0  0  0  0  0  0  0  0999 V2000
   -2.1473    0.0430   -0.2194 C   0  0  0  0  0  0  0  0  0  0  0  0
   -3.4924   -0.2228   -0.3211 N   0  0  0  0  0  0  0  0  0  0  0  0
   -4.5981   -0.3812   -0.3909 N   0  0  0  0  0  0  0  0  0  0  0  0
   -1.7970    1.3856    0.0635 C   0  0  0  0  0  0  0  0  0  0  0  0
   -0.4122    1.5540    0.1509 C   0  0  0  0  0  0  0  0  0  0  0  0
    0.5122    0.5079   -0.0223 C   0  0  0  0  0  0  0  0  0  0  0  0
    1.8130    0.8412    0.0980 O   0  0  0  0  0  0  0  0  0  0  0  0
    2.8184   -0.1580   -0.0527 C   0  0  0  0  0  0  0  0  0  0  0  0
    0.0751   -0.8139   -0.3062 C   0  0  0  0  0  0  0  0  0  0  0  0
   -1.2754   -1.0581   -0.4080 C   0  0  0  0  0  0  0  0  0  0  0  0
   -2.8992    2.6950    0.2868 H   0  0  0  0  0  0  0  0  0  0  0  0
    0.0090    2.5342    0.3660 H   0  0  0  0  0  0  0  0  0  0  0  0
    3.7688    0.3549    0.0958 H   0  0  0  0  0  0  0  0  0  0  0  0
    2.7982   -0.5983   -1.0562 H   0  0  0  0  0  0  0  0  0  0  0  0
    2.7124   -0.9491    0.6987 H   0  0  0  0  0  0  0  0  0  0  0  0
    0.7798   -1.6240   -0.4428 H   0  0  0  0  0  0  0  0  0  0  0  0
   -1.6529   -2.0535   -0.6244 H   0  0  0  0  0  0  0  0  0  0  0  0
   -3.5058    3.5551    0.4378 O   0  0  0  0  0  0  0  0  0  0  0  0
   -4.7748    3.2565    0.4225 C   0  0  0  0  0  0  0  0  0  0  0  0
   -5.2983    2.1688    0.2559 O   0  0  0  0  0  0  0  0  0  0  0  0
   -5.6405    4.5194    0.6484 C   0  0  0  0  0  0  0  0  0  0  0  0
   -5.4423    5.4120   -0.3430 F   0  0  0  0  0  0  0  0  0  0  0  0
   -6.9438    4.2128    0.6793 F   0  0  0  0  0  0  0  0  0  0  0  0
   -5.3217    5.1171    1.8137 F   0  0  0  0  0  0  0  0  0  0  0  0
  1  4  2  0  0  0  0
  2  1  1  0  0  0  0
  3  2  1  0  0  0  0
  4  5  1  0  0  0  0
  5 12  1  0  0  0  0
  6  7  1  0  0  0  0
  6  5  2  0  0  0  0
  8 13  1  0  0  0  0
  8  7  1  0  0  0  0
  8 15  1  0  0  0  0
  9  6  1  0  0  0  0
 10  9  2  0  0  0  0
 10  1  1  0  0  0  0
 11 18  1  0  0  0  0
 14  8  1  0  0  0  0
 16  9  1  0  0  0  0
 17 10  1  0  0  0  0
 19 18  1  0  0  0  0
 19 21  1  0  0  0  0
 20 19  2  0  0  0  0
 21 23  1  0  0  0  0
 21 24  1  0  0  0  0
 22 21  1  0  0  0  0
M  RAD  3   2   2   3   3   4   2
M  END
