Coordinates from ORCA-job 4-MeOPhN2+~CF3COO-_B3LYPG-6-31G_dp-CH-Scan-d09-49-n800
 OpenBabel11261919493D

 24 23  0  0  0  0  0  0  0  0999 V2000
   -1.6619    0.0647   -0.1454 C   0  0  0  0  0  0  0  0  0  0  0  0
   -3.0380   -0.0022   -0.1832 N   0  0  0  0  0  0  0  0  0  0  0  0
   -4.1598   -0.0043   -0.2038 N   0  0  0  0  0  0  0  0  0  0  0  0
   -1.1553    1.3584    0.1261 C   0  0  0  0  0  0  0  0  0  0  0  0
    0.2516    1.3280    0.1450 C   0  0  0  0  0  0  0  0  0  0  0  0
    1.0200    0.1740   -0.0745 C   0  0  0  0  0  0  0  0  0  0  0  0
    2.3648    0.3285   -0.0176 O   0  0  0  0  0  0  0  0  0  0  0  0
    3.2150   -0.7927   -0.2264 C   0  0  0  0  0  0  0  0  0  0  0  0
    0.4055   -1.0839   -0.3408 C   0  0  0  0  0  0  0  0  0  0  0  0
   -0.9671   -1.1523   -0.3796 C   0  0  0  0  0  0  0  0  0  0  0  0
   -3.5762    4.1096    0.6611 H   0  0  0  0  0  0  0  0  0  0  0  0
    0.8202    2.2380    0.3404 H   0  0  0  0  0  0  0  0  0  0  0  0
    4.2340   -0.4153   -0.1305 H   0  0  0  0  0  0  0  0  0  0  0  0
    3.0830   -1.2194   -1.2283 H   0  0  0  0  0  0  0  0  0  0  0  0
    3.0475   -1.5726    0.5263 H   0  0  0  0  0  0  0  0  0  0  0  0
    0.9962   -1.9749   -0.5111 H   0  0  0  0  0  0  0  0  0  0  0  0
   -1.4822   -2.0887   -0.5801 H   0  0  0  0  0  0  0  0  0  0  0  0
   -4.3711    4.6674    0.7234 O   0  0  0  0  0  0  0  0  0  0  0  0
   -5.4377    3.8942    0.5098 C   0  0  0  0  0  0  0  0  0  0  0  0
   -5.4386    2.7123    0.2781 O   0  0  0  0  0  0  0  0  0  0  0  0
   -6.7267    4.7388    0.6100 C   0  0  0  0  0  0  0  0  0  0  0  0
   -6.6867    5.7648   -0.2578 F   0  0  0  0  0  0  0  0  0  0  0  0
   -7.7950    3.9869    0.3374 F   0  0  0  0  0  0  0  0  0  0  0  0
   -6.8559    5.2396    1.8518 F   0  0  0  0  0  0  0  0  0  0  0  0
  1  4  2  0  0  0  0
  2  1  1  0  0  0  0
  3  2  1  0  0  0  0
  4  5  1  0  0  0  0
  5 12  1  0  0  0  0
  6  7  1  0  0  0  0
  6  5  2  0  0  0  0
  8 13  1  0  0  0  0
  8  7  1  0  0  0  0
  8 15  1  0  0  0  0
  9  6  1  0  0  0  0
 10  9  2  0  0  0  0
 10  1  1  0  0  0  0
 11 18  1  0  0  0  0
 14  8  1  0  0  0  0
 16  9  1  0  0  0  0
 17 10  1  0  0  0  0
 19 21  1  0  0  0  0
 19 18  1  0  0  0  0
 20 19  2  0  0  0  0
 21 24  1  0  0  0  0
 22 21  1  0  0  0  0
 23 21  1  0  0  0  0
M  RAD  3   2   2   3   3   4   2
M  END
