Coordinates from ORCA-job 4-MeOPhN2+~CF3COO-_B3LYPG-6-31G_dp-CH-Scan-d09-49-n800
 OpenBabel11261919493D

 24 23  0  0  0  0  0  0  0  0999 V2000
   -1.9829    0.0406   -0.2034 C   0  0  0  0  0  0  0  0  0  0  0  0
   -3.3409   -0.1629   -0.2863 N   0  0  0  0  0  0  0  0  0  0  0  0
   -4.4530   -0.2859   -0.3448 N   0  0  0  0  0  0  0  0  0  0  0  0
   -1.5875    1.3704    0.0810 C   0  0  0  0  0  0  0  0  0  0  0  0
   -0.1910    1.4752    0.1492 C   0  0  0  0  0  0  0  0  0  0  0  0
    0.6860    0.3935   -0.0401 C   0  0  0  0  0  0  0  0  0  0  0  0
    2.0045    0.6702    0.0651 O   0  0  0  0  0  0  0  0  0  0  0  0
    2.9625   -0.3702   -0.1021 C   0  0  0  0  0  0  0  0  0  0  0  0
    0.1939   -0.9110   -0.3246 C   0  0  0  0  0  0  0  0  0  0  0  0
   -1.1655   -1.1013   -0.4099 C   0  0  0  0  0  0  0  0  0  0  0  0
   -3.1375    3.1774    0.3991 H   0  0  0  0  0  0  0  0  0  0  0  0
    0.2810    2.4335    0.3622 H   0  0  0  0  0  0  0  0  0  0  0  0
    3.9367    0.0990    0.0379 H   0  0  0  0  0  0  0  0  0  0  0  0
    2.9132   -0.8050   -1.1074 H   0  0  0  0  0  0  0  0  0  0  0  0
    2.8317   -1.1612    0.6459 H   0  0  0  0  0  0  0  0  0  0  0  0
    0.8654   -1.7469   -0.4734 H   0  0  0  0  0  0  0  0  0  0  0  0
   -1.5860   -2.0798   -0.6259 H   0  0  0  0  0  0  0  0  0  0  0  0
   -3.7750    3.9232    0.5302 O   0  0  0  0  0  0  0  0  0  0  0  0
   -5.0120    3.4647    0.4538 C   0  0  0  0  0  0  0  0  0  0  0  0
   -5.3707    2.3263    0.2567 O   0  0  0  0  0  0  0  0  0  0  0  0
   -6.0196    4.6203    0.6486 C   0  0  0  0  0  0  0  0  0  0  0  0
   -5.8788    5.5333   -0.3313 F   0  0  0  0  0  0  0  0  0  0  0  0
   -7.2738    4.1595    0.6219 F   0  0  0  0  0  0  0  0  0  0  0  0
   -5.8151    5.2358    1.8278 F   0  0  0  0  0  0  0  0  0  0  0  0
  1  4  2  0  0  0  0
  2  1  1  0  0  0  0
  3  2  1  0  0  0  0
  4  5  1  0  0  0  0
  5 12  1  0  0  0  0
  6  7  1  0  0  0  0
  6  5  2  0  0  0  0
  8 13  1  0  0  0  0
  8  7  1  0  0  0  0
  8 15  1  0  0  0  0
  9  6  1  0  0  0  0
 10  9  2  0  0  0  0
 10  1  1  0  0  0  0
 11 18  1  0  0  0  0
 14  8  1  0  0  0  0
 16  9  1  0  0  0  0
 17 10  1  0  0  0  0
 19 18  1  0  0  0  0
 19 21  1  0  0  0  0
 20 19  2  0  0  0  0
 21 24  1  0  0  0  0
 22 21  1  0  0  0  0
 23 21  1  0  0  0  0
M  RAD  3   2   2   3   3   4   2
M  END
