Coordinates from ORCA-job 4-MeOPhN2+~CF3COO-_B3LYPG-6-31G_dp-CH-Scan-d09-49-n800
 OpenBabel11261919493D

 24 23  0  0  0  0  0  0  0  0999 V2000
   -1.8193    0.0500   -0.1667 C   0  0  0  0  0  0  0  0  0  0  0  0
   -3.1883   -0.0852   -0.2255 N   0  0  0  0  0  0  0  0  0  0  0  0
   -4.3072   -0.1505   -0.2622 N   0  0  0  0  0  0  0  0  0  0  0  0
   -1.3677    1.3636    0.1087 C   0  0  0  0  0  0  0  0  0  0  0  0
    0.0362    1.4001    0.1483 C   0  0  0  0  0  0  0  0  0  0  0  0
    0.8588    0.2806   -0.0575 C   0  0  0  0  0  0  0  0  0  0  0  0
    2.1928    0.4960    0.0187 O   0  0  0  0  0  0  0  0  0  0  0  0
    3.0967   -0.5864   -0.1726 C   0  0  0  0  0  0  0  0  0  0  0  0
    0.3041   -1.0026   -0.3294 C   0  0  0  0  0  0  0  0  0  0  0  0
   -1.0635   -1.1321   -0.3875 C   0  0  0  0  0  0  0  0  0  0  0  0
   -3.3474    3.6563    0.5258 H   0  0  0  0  0  0  0  0  0  0  0  0
    0.5587    2.3354    0.3497 H   0  0  0  0  0  0  0  0  0  0  0  0
    4.0954   -0.1630   -0.0592 H   0  0  0  0  0  0  0  0  0  0  0  0
    3.0016   -1.0193   -1.1758 H   0  0  0  0  0  0  0  0  0  0  0  0
    2.9505   -1.3716    0.5789 H   0  0  0  0  0  0  0  0  0  0  0  0
    0.9355   -1.8673   -0.4893 H   0  0  0  0  0  0  0  0  0  0  0  0
   -1.5326   -2.0911   -0.5932 H   0  0  0  0  0  0  0  0  0  0  0  0
   -4.0665    4.3100    0.6218 O   0  0  0  0  0  0  0  0  0  0  0  0
   -5.2307    3.6832    0.4780 C   0  0  0  0  0  0  0  0  0  0  0  0
   -5.4061    2.5090    0.2668 O   0  0  0  0  0  0  0  0  0  0  0  0
   -6.3926    4.6901    0.6274 C   0  0  0  0  0  0  0  0  0  0  0  0
   -6.2716    5.6863   -0.2679 F   0  0  0  0  0  0  0  0  0  0  0  0
   -7.5641    4.0795    0.4323 F   0  0  0  0  0  0  0  0  0  0  0  0
   -6.3874    5.2277    1.8606 F   0  0  0  0  0  0  0  0  0  0  0  0
  1  4  2  0  0  0  0
  2  1  1  0  0  0  0
  3  2  1  0  0  0  0
  4  5  1  0  0  0  0
  5 12  1  0  0  0  0
  6  7  1  0  0  0  0
  6  5  2  0  0  0  0
  8 13  1  0  0  0  0
  8  7  1  0  0  0  0
  8 15  1  0  0  0  0
  9  6  1  0  0  0  0
 10  9  2  0  0  0  0
 10  1  1  0  0  0  0
 11 18  1  0  0  0  0
 14  8  1  0  0  0  0
 16  9  1  0  0  0  0
 17 10  1  0  0  0  0
 19 18  1  0  0  0  0
 19 21  1  0  0  0  0
 20 19  2  0  0  0  0
 21 24  1  0  0  0  0
 22 21  1  0  0  0  0
 23 21  1  0  0  0  0
M  RAD  3   2   2   3   3   4   2
M  END
