Coordinates from ORCA-job 4-MeOPhN2+~CF3COO-_B3LYPG-6-31G_dp-CH-Scan-d09-49-n800
 OpenBabel11261919493D

 24 23  0  0  0  0  0  0  0  0999 V2000
   -2.0586    0.0378   -0.2043 C   0  0  0  0  0  0  0  0  0  0  0  0
   -3.4105   -0.1975   -0.2942 N   0  0  0  0  0  0  0  0  0  0  0  0
   -4.5193   -0.3423   -0.3574 N   0  0  0  0  0  0  0  0  0  0  0  0
   -1.6873    1.3739    0.0847 C   0  0  0  0  0  0  0  0  0  0  0  0
   -0.2950    1.5085    0.1588 C   0  0  0  0  0  0  0  0  0  0  0  0
    0.6053    0.4454   -0.0300 C   0  0  0  0  0  0  0  0  0  0  0  0
    1.9161    0.7499    0.0805 O   0  0  0  0  0  0  0  0  0  0  0  0
    2.8972   -0.2696   -0.0854 C   0  0  0  0  0  0  0  0  0  0  0  0
    0.1405   -0.8672   -0.3189 C   0  0  0  0  0  0  0  0  0  0  0  0
   -1.2148   -1.0841   -0.4096 C   0  0  0  0  0  0  0  0  0  0  0  0
   -3.0376    2.9595    0.3659 H   0  0  0  0  0  0  0  0  0  0  0  0
    0.1541    2.4763    0.3761 H   0  0  0  0  0  0  0  0  0  0  0  0
    3.8603    0.2205    0.0586 H   0  0  0  0  0  0  0  0  0  0  0  0
    2.8600   -0.7029   -1.0917 H   0  0  0  0  0  0  0  0  0  0  0  0
    2.7805   -1.0643    0.6608 H   0  0  0  0  0  0  0  0  0  0  0  0
    0.8286   -1.6894   -0.4673 H   0  0  0  0  0  0  0  0  0  0  0  0
   -1.6146   -2.0703   -0.6293 H   0  0  0  0  0  0  0  0  0  0  0  0
   -3.6477    3.7479    0.5052 O   0  0  0  0  0  0  0  0  0  0  0  0
   -4.9054    3.3682    0.4377 C   0  0  0  0  0  0  0  0  0  0  0  0
   -5.3422    2.2544    0.2406 O   0  0  0  0  0  0  0  0  0  0  0  0
   -5.8437    4.5799    0.6421 C   0  0  0  0  0  0  0  0  0  0  0  0
   -5.6663    5.4817   -0.3433 F   0  0  0  0  0  0  0  0  0  0  0  0
   -7.1241    4.1937    0.6347 F   0  0  0  0  0  0  0  0  0  0  0  0
   -5.5898    5.1886    1.8159 F   0  0  0  0  0  0  0  0  0  0  0  0
  1  4  2  0  0  0  0
  2  1  1  0  0  0  0
  3  2  1  0  0  0  0
  4  5  1  0  0  0  0
  5 12  1  0  0  0  0
  6  7  1  0  0  0  0
  6  5  2  0  0  0  0
  8 13  1  0  0  0  0
  8  7  1  0  0  0  0
  8 15  1  0  0  0  0
  9  6  1  0  0  0  0
 10  9  2  0  0  0  0
 10  1  1  0  0  0  0
 11 18  1  0  0  0  0
 14  8  1  0  0  0  0
 16  9  1  0  0  0  0
 17 10  1  0  0  0  0
 19 18  1  0  0  0  0
 19 21  1  0  0  0  0
 20 19  2  0  0  0  0
 21 24  1  0  0  0  0
 22 21  1  0  0  0  0
 23 21  1  0  0  0  0
M  RAD  3   2   2   3   3   4   2
M  END
