Coordinates from ORCA-job 4-MeOPhN2+~CF3COO-_B3LYPG-6-31G_dp-CH-Scan-d09-49-n800
 OpenBabel11261919493D

 24 23  0  0  0  0  0  0  0  0999 V2000
   -1.8926    0.0444   -0.1972 C   0  0  0  0  0  0  0  0  0  0  0  0
   -3.2569   -0.1213   -0.2724 N   0  0  0  0  0  0  0  0  0  0  0  0
   -4.3729   -0.2122   -0.3239 N   0  0  0  0  0  0  0  0  0  0  0  0
   -1.4679    1.3660    0.0821 C   0  0  0  0  0  0  0  0  0  0  0  0
   -0.0672    1.4343    0.1417 C   0  0  0  0  0  0  0  0  0  0  0  0
    0.7814    0.3314   -0.0505 C   0  0  0  0  0  0  0  0  0  0  0  0
    2.1082    0.5749    0.0458 O   0  0  0  0  0  0  0  0  0  0  0  0
    3.0381   -0.4890   -0.1271 C   0  0  0  0  0  0  0  0  0  0  0  0
    0.2565   -0.9624   -0.3292 C   0  0  0  0  0  0  0  0  0  0  0  0
   -1.1074   -1.1201   -0.4062 C   0  0  0  0  0  0  0  0  0  0  0  0
   -3.2548    3.4349    0.4421 H   0  0  0  0  0  0  0  0  0  0  0  0
    0.4314    2.3807    0.3494 H   0  0  0  0  0  0  0  0  0  0  0  0
    4.0252   -0.0445    0.0044 H   0  0  0  0  0  0  0  0  0  0  0  0
    2.9705   -0.9243   -1.1313 H   0  0  0  0  0  0  0  0  0  0  0  0
    2.8939   -1.2759    0.6228 H   0  0  0  0  0  0  0  0  0  0  0  0
    0.9073   -1.8143   -0.4797 H   0  0  0  0  0  0  0  0  0  0  0  0
   -1.5532   -2.0886   -0.6177 H   0  0  0  0  0  0  0  0  0  0  0  0
   -3.9334    4.1322    0.5618 O   0  0  0  0  0  0  0  0  0  0  0  0
   -5.1372    3.5819    0.4718 C   0  0  0  0  0  0  0  0  0  0  0  0
   -5.4017    2.4200    0.2768 O   0  0  0  0  0  0  0  0  0  0  0  0
   -6.2257    4.6636    0.6514 C   0  0  0  0  0  0  0  0  0  0  0  0
   -6.1195    5.5973   -0.3121 F   0  0  0  0  0  0  0  0  0  0  0  0
   -7.4427    4.1175    0.5835 F   0  0  0  0  0  0  0  0  0  0  0  0
   -6.0939    5.2722    1.8439 F   0  0  0  0  0  0  0  0  0  0  0  0
  1  4  2  0  0  0  0
  2  1  1  0  0  0  0
  3  2  1  0  0  0  0
  4  5  1  0  0  0  0
  5 12  1  0  0  0  0
  6  7  1  0  0  0  0
  6  5  2  0  0  0  0
  8 13  1  0  0  0  0
  8  7  1  0  0  0  0
  8 15  1  0  0  0  0
  9  6  1  0  0  0  0
 10  9  2  0  0  0  0
 10  1  1  0  0  0  0
 11 18  1  0  0  0  0
 14  8  1  0  0  0  0
 16  9  1  0  0  0  0
 17 10  1  0  0  0  0
 19 18  1  0  0  0  0
 19 21  1  0  0  0  0
 20 19  2  0  0  0  0
 21 24  1  0  0  0  0
 22 21  1  0  0  0  0
 23 21  1  0  0  0  0
M  RAD  3   2   2   3   3   4   2
M  END
