Coordinates from ORCA-job 4-MeOPhN2+~CF3COO-_B3LYPG-6-31G_dp-CH-Scan-d09-49-n800
 OpenBabel11261919493D

 24 23  0  0  0  0  0  0  0  0999 V2000
   -2.1649    0.0461   -0.2211 C   0  0  0  0  0  0  0  0  0  0  0  0
   -3.5095   -0.2223   -0.3240 N   0  0  0  0  0  0  0  0  0  0  0  0
   -4.6160   -0.3736   -0.3925 N   0  0  0  0  0  0  0  0  0  0  0  0
   -1.8150    1.3886    0.0602 C   0  0  0  0  0  0  0  0  0  0  0  0
   -0.4328    1.5646    0.1499 C   0  0  0  0  0  0  0  0  0  0  0  0
    0.4952    0.5206   -0.0206 C   0  0  0  0  0  0  0  0  0  0  0  0
    1.7940    0.8585    0.1009 O   0  0  0  0  0  0  0  0  0  0  0  0
    2.8034   -0.1375   -0.0474 C   0  0  0  0  0  0  0  0  0  0  0  0
    0.0617   -0.8023   -0.3031 C   0  0  0  0  0  0  0  0  0  0  0  0
   -1.2883   -1.0508   -0.4065 C   0  0  0  0  0  0  0  0  0  0  0  0
   -2.8611    2.6287    0.2702 H   0  0  0  0  0  0  0  0  0  0  0  0
   -0.0178    2.5472    0.3642 H   0  0  0  0  0  0  0  0  0  0  0  0
    3.7516    0.3793    0.1013 H   0  0  0  0  0  0  0  0  0  0  0  0
    2.7855   -0.5789   -1.0504 H   0  0  0  0  0  0  0  0  0  0  0  0
    2.6991   -0.9277    0.7051 H   0  0  0  0  0  0  0  0  0  0  0  0
    0.7687   -1.6106   -0.4375 H   0  0  0  0  0  0  0  0  0  0  0  0
   -1.6622   -2.0476   -0.6218 H   0  0  0  0  0  0  0  0  0  0  0  0
   -3.4802    3.5158    0.4257 O   0  0  0  0  0  0  0  0  0  0  0  0
   -4.7484    3.2339    0.4181 C   0  0  0  0  0  0  0  0  0  0  0  0
   -5.2905    2.1521    0.2546 O   0  0  0  0  0  0  0  0  0  0  0  0
   -5.6027    4.5046    0.6487 C   0  0  0  0  0  0  0  0  0  0  0  0
   -5.3993    5.3985   -0.3413 F   0  0  0  0  0  0  0  0  0  0  0  0
   -6.9101    4.2133    0.6833 F   0  0  0  0  0  0  0  0  0  0  0  0
   -5.2751    5.0981    1.8144 F   0  0  0  0  0  0  0  0  0  0  0  0
  1  4  2  0  0  0  0
  2  1  1  0  0  0  0
  3  2  1  0  0  0  0
  4  5  1  0  0  0  0
  5 12  1  0  0  0  0
  6  7  1  0  0  0  0
  6  5  2  0  0  0  0
  8  7  1  0  0  0  0
  8 13  1  0  0  0  0
  8 15  1  0  0  0  0
  9  6  1  0  0  0  0
 10  9  2  0  0  0  0
 10  1  1  0  0  0  0
 11 18  1  0  0  0  0
 14  8  1  0  0  0  0
 16  9  1  0  0  0  0
 17 10  1  0  0  0  0
 19 18  1  0  0  0  0
 19 21  1  0  0  0  0
 20 19  2  0  0  0  0
 21 23  1  0  0  0  0
 21 24  1  0  0  0  0
 22 21  1  0  0  0  0
M  RAD  3   2   2   3   3   4   2
M  END
