Coordinates from ORCA-job 4-MeOPhN2+~CF3COO-_B3LYPG-6-31G_dp-CH-Scan-d09-49-n800
 OpenBabel11261919493D

 24 23  0  0  0  0  0  0  0  0999 V2000
   -1.7754    0.0533   -0.1584 C   0  0  0  0  0  0  0  0  0  0  0  0
   -3.1469   -0.0634   -0.2102 N   0  0  0  0  0  0  0  0  0  0  0  0
   -4.2668   -0.1120   -0.2438 N   0  0  0  0  0  0  0  0  0  0  0  0
   -1.3087    1.3614    0.1163 C   0  0  0  0  0  0  0  0  0  0  0  0
    0.0965    1.3795    0.1490 C   0  0  0  0  0  0  0  0  0  0  0  0
    0.9043    0.2504   -0.0620 C   0  0  0  0  0  0  0  0  0  0  0  0
    2.2417    0.4491    0.0079 O   0  0  0  0  0  0  0  0  0  0  0  0
    3.1308   -0.6441   -0.1898 C   0  0  0  0  0  0  0  0  0  0  0  0
    0.3328   -1.0260   -0.3328 C   0  0  0  0  0  0  0  0  0  0  0  0
   -1.0364   -1.1387   -0.3844 C   0  0  0  0  0  0  0  0  0  0  0  0
   -3.4082    3.7847    0.5679 H   0  0  0  0  0  0  0  0  0  0  0  0
    0.6321    2.3079    0.3490 H   0  0  0  0  0  0  0  0  0  0  0  0
    4.1354   -0.2332   -0.0819 H   0  0  0  0  0  0  0  0  0  0  0  0
    3.0247   -1.0748   -1.1928 H   0  0  0  0  0  0  0  0  0  0  0  0
    2.9795   -1.4284    0.5617 H   0  0  0  0  0  0  0  0  0  0  0  0
    0.9531   -1.8980   -0.4967 H   0  0  0  0  0  0  0  0  0  0  0  0
   -1.5184   -2.0916   -0.5889 H   0  0  0  0  0  0  0  0  0  0  0  0
   -4.1496    4.4120    0.6543 O   0  0  0  0  0  0  0  0  0  0  0  0
   -5.2883    3.7425    0.4864 C   0  0  0  0  0  0  0  0  0  0  0  0
   -5.4138    2.5639    0.2666 O   0  0  0  0  0  0  0  0  0  0  0  0
   -6.4885    4.7053    0.6208 C   0  0  0  0  0  0  0  0  0  0  0  0
   -6.3866    5.7121   -0.2648 F   0  0  0  0  0  0  0  0  0  0  0  0
   -7.6329    4.0542    0.3992 F   0  0  0  0  0  0  0  0  0  0  0  0
   -6.5251    5.2326    1.8578 F   0  0  0  0  0  0  0  0  0  0  0  0
  1  4  2  0  0  0  0
  2  1  1  0  0  0  0
  3  2  1  0  0  0  0
  4  5  1  0  0  0  0
  5 12  1  0  0  0  0
  6  7  1  0  0  0  0
  6  5  2  0  0  0  0
  8 13  1  0  0  0  0
  8  7  1  0  0  0  0
  8 15  1  0  0  0  0
  9  6  1  0  0  0  0
 10  9  2  0  0  0  0
 10  1  1  0  0  0  0
 11 18  1  0  0  0  0
 14  8  1  0  0  0  0
 16  9  1  0  0  0  0
 17 10  1  0  0  0  0
 19 21  1  0  0  0  0
 19 18  1  0  0  0  0
 20 19  2  0  0  0  0
 21 24  1  0  0  0  0
 22 21  1  0  0  0  0
 23 21  1  0  0  0  0
M  RAD  3   2   2   3   3   4   2
M  END
