Coordinates from ORCA-job 4-MeOPhN2+~CF3COO-_B3LYPG-6-31G_dp-CH-Scan-d09-49-n800
 OpenBabel11261919493D

 24 23  0  0  0  0  0  0  0  0999 V2000
   -1.4359    0.1458   -0.2606 C   0  0  0  0  0  0  0  0  0  0  0  0
   -2.8123    0.1965   -0.3316 N   0  0  0  0  0  0  0  0  0  0  0  0
   -3.9291    0.2974   -0.3805 N   0  0  0  0  0  0  0  0  0  0  0  0
   -0.8330    1.4095   -0.0561 C   0  0  0  0  0  0  0  0  0  0  0  0
    0.5668    1.2639    0.0030 C   0  0  0  0  0  0  0  0  0  0  0  0
    1.2402    0.0396   -0.1240 C   0  0  0  0  0  0  0  0  0  0  0  0
    2.5927    0.0863   -0.0413 O   0  0  0  0  0  0  0  0  0  0  0  0
    3.3499   -1.1121   -0.1571 C   0  0  0  0  0  0  0  0  0  0  0  0
    0.5292   -1.1790   -0.3285 C   0  0  0  0  0  0  0  0  0  0  0  0
   -0.8430   -1.1378   -0.4004 C   0  0  0  0  0  0  0  0  0  0  0  0
   -3.9428    4.7570    0.5534 H   0  0  0  0  0  0  0  0  0  0  0  0
    1.2056    2.1348    0.1571 H   0  0  0  0  0  0  0  0  0  0  0  0
    4.3948   -0.8151   -0.0565 H   0  0  0  0  0  0  0  0  0  0  0  0
    3.2047   -1.5899   -1.1340 H   0  0  0  0  0  0  0  0  0  0  0  0
    3.1004   -1.8261    0.6373 H   0  0  0  0  0  0  0  0  0  0  0  0
    1.0487   -2.1239   -0.4274 H   0  0  0  0  0  0  0  0  0  0  0  0
   -1.4302   -2.0398   -0.5561 H   0  0  0  0  0  0  0  0  0  0  0  0
   -4.8242    5.1456    0.6892 O   0  0  0  0  0  0  0  0  0  0  0  0
   -5.7268    4.1693    0.5451 C   0  0  0  0  0  0  0  0  0  0  0  0
   -5.5003    3.0145    0.2930 O   0  0  0  0  0  0  0  0  0  0  0  0
   -7.1484    4.7346    0.7533 C   0  0  0  0  0  0  0  0  0  0  0  0
   -7.3939    5.7182   -0.1294 F   0  0  0  0  0  0  0  0  0  0  0  0
   -8.0568    3.7714    0.5882 F   0  0  0  0  0  0  0  0  0  0  0  0
   -7.2708    5.2378    1.9942 F   0  0  0  0  0  0  0  0  0  0  0  0
  1  4  2  0  0  0  0
  2  1  1  0  0  0  0
  3  2  1  0  0  0  0
  4  5  1  0  0  0  0
  5 12  1  0  0  0  0
  6  7  1  0  0  0  0
  6  5  2  0  0  0  0
  8 13  1  0  0  0  0
  8  7  1  0  0  0  0
  8 15  1  0  0  0  0
  9  6  1  0  0  0  0
 10  9  2  0  0  0  0
 10  1  1  0  0  0  0
 11 18  1  0  0  0  0
 14  8  1  0  0  0  0
 16  9  1  0  0  0  0
 17 10  1  0  0  0  0
 19 18  1  0  0  0  0
 19 21  1  0  0  0  0
 20 19  2  0  0  0  0
 21 24  1  0  0  0  0
 22 21  1  0  0  0  0
 23 21  1  0  0  0  0
M  RAD  3   2   2   3   3   4   2
M  END
