Coordinates from ORCA-job 4-MeOPhN2+~CF3COO-_B3LYPG-6-31G_dp-CH-Scan-d09-49-n800
 OpenBabel11261919493D

 24 23  0  0  0  0  0  0  0  0999 V2000
   -2.1794    0.0511   -0.2216 C   0  0  0  0  0  0  0  0  0  0  0  0
   -3.5253   -0.2124   -0.3243 N   0  0  0  0  0  0  0  0  0  0  0  0
   -4.6360   -0.3324   -0.3863 N   0  0  0  0  0  0  0  0  0  0  0  0
   -1.8249    1.3913    0.0583 C   0  0  0  0  0  0  0  0  0  0  0  0
   -0.4464    1.5756    0.1505 C   0  0  0  0  0  0  0  0  0  0  0  0
    0.4831    0.5319   -0.0184 C   0  0  0  0  0  0  0  0  0  0  0  0
    1.7802    0.8722    0.1038 O   0  0  0  0  0  0  0  0  0  0  0  0
    2.7922   -0.1219   -0.0435 C   0  0  0  0  0  0  0  0  0  0  0  0
    0.0504   -0.7907   -0.3000 C   0  0  0  0  0  0  0  0  0  0  0  0
   -1.2997   -1.0417   -0.4046 C   0  0  0  0  0  0  0  0  0  0  0  0
   -2.8117    2.5455    0.2515 H   0  0  0  0  0  0  0  0  0  0  0  0
   -0.0379    2.5606    0.3643 H   0  0  0  0  0  0  0  0  0  0  0  0
    3.7389    0.3973    0.1054 H   0  0  0  0  0  0  0  0  0  0  0  0
    2.7752   -0.5636   -1.0463 H   0  0  0  0  0  0  0  0  0  0  0  0
    2.6888   -0.9116    0.7096 H   0  0  0  0  0  0  0  0  0  0  0  0
    0.7583   -1.5985   -0.4330 H   0  0  0  0  0  0  0  0  0  0  0  0
   -1.6716   -2.0392   -0.6192 H   0  0  0  0  0  0  0  0  0  0  0  0
   -3.4634    3.4757    0.4130 O   0  0  0  0  0  0  0  0  0  0  0  0
   -4.7283    3.2110    0.4117 C   0  0  0  0  0  0  0  0  0  0  0  0
   -5.2927    2.1359    0.2500 O   0  0  0  0  0  0  0  0  0  0  0  0
   -5.5738    4.4883    0.6481 C   0  0  0  0  0  0  0  0  0  0  0  0
   -5.3684    5.3837   -0.3412 F   0  0  0  0  0  0  0  0  0  0  0  0
   -6.8852    4.2116    0.6890 F   0  0  0  0  0  0  0  0  0  0  0  0
   -5.2368    5.0789    1.8135 F   0  0  0  0  0  0  0  0  0  0  0  0
  1  4  2  0  0  0  0
  2  1  1  0  0  0  0
  3  2  1  0  0  0  0
  4  5  1  0  0  0  0
  5 12  1  0  0  0  0
  6  7  1  0  0  0  0
  6  5  2  0  0  0  0
  8  7  1  0  0  0  0
  8 13  1  0  0  0  0
  8 15  1  0  0  0  0
  9  6  1  0  0  0  0
 10  9  2  0  0  0  0
 10  1  1  0  0  0  0
 11 18  1  0  0  0  0
 14  8  1  0  0  0  0
 16  9  1  0  0  0  0
 17 10  1  0  0  0  0
 19 18  1  0  0  0  0
 19 21  1  0  0  0  0
 20 19  2  0  0  0  0
 21 23  1  0  0  0  0
 21 24  1  0  0  0  0
 22 21  1  0  0  0  0
M  RAD  3   2   2   3   3   4   2
M  END
