Coordinates from ORCA-job 4-MeOPhN2+~CF3COO-_B3LYPG-6-31G_dp-CH-Scan-d09-49-n800
 OpenBabel11261919493D

 24 23  0  0  0  0  0  0  0  0999 V2000
   -1.8146    0.0506   -0.1650 C   0  0  0  0  0  0  0  0  0  0  0  0
   -3.1840   -0.0825   -0.2224 N   0  0  0  0  0  0  0  0  0  0  0  0
   -4.3029   -0.1458   -0.2610 N   0  0  0  0  0  0  0  0  0  0  0  0
   -1.3612    1.3634    0.1099 C   0  0  0  0  0  0  0  0  0  0  0  0
    0.0429    1.3980    0.1485 C   0  0  0  0  0  0  0  0  0  0  0  0
    0.8638    0.2773   -0.0580 C   0  0  0  0  0  0  0  0  0  0  0  0
    2.1982    0.4909    0.0171 O   0  0  0  0  0  0  0  0  0  0  0  0
    3.1004   -0.5928   -0.1751 C   0  0  0  0  0  0  0  0  0  0  0  0
    0.3071   -1.0052   -0.3296 C   0  0  0  0  0  0  0  0  0  0  0  0
   -1.0607   -1.1327   -0.3865 C   0  0  0  0  0  0  0  0  0  0  0  0
   -3.3539    3.6707    0.5318 H   0  0  0  0  0  0  0  0  0  0  0  0
    0.5669    2.3325    0.3496 H   0  0  0  0  0  0  0  0  0  0  0  0
    4.0997   -0.1707   -0.0626 H   0  0  0  0  0  0  0  0  0  0  0  0
    3.0038   -1.0254   -1.1782 H   0  0  0  0  0  0  0  0  0  0  0  0
    2.9538   -1.3778    0.5765 H   0  0  0  0  0  0  0  0  0  0  0  0
    0.9372   -1.8707   -0.4900 H   0  0  0  0  0  0  0  0  0  0  0  0
   -1.5314   -2.0910   -0.5918 H   0  0  0  0  0  0  0  0  0  0  0  0
   -4.0754    4.3213    0.6268 O   0  0  0  0  0  0  0  0  0  0  0  0
   -5.2366    3.6896    0.4789 C   0  0  0  0  0  0  0  0  0  0  0  0
   -5.4064    2.5147    0.2660 O   0  0  0  0  0  0  0  0  0  0  0  0
   -6.4030    4.6914    0.6262 C   0  0  0  0  0  0  0  0  0  0  0  0
   -6.2832    5.6894   -0.2674 F   0  0  0  0  0  0  0  0  0  0  0  0
   -7.5713    4.0763    0.4265 F   0  0  0  0  0  0  0  0  0  0  0  0
   -6.4038    5.2272    1.8602 F   0  0  0  0  0  0  0  0  0  0  0  0
  1  4  2  0  0  0  0
  2  1  1  0  0  0  0
  3  2  1  0  0  0  0
  4  5  1  0  0  0  0
  5 12  1  0  0  0  0
  6  7  1  0  0  0  0
  6  5  2  0  0  0  0
  8 13  1  0  0  0  0
  8  7  1  0  0  0  0
  8 15  1  0  0  0  0
  9  6  1  0  0  0  0
 10  9  2  0  0  0  0
 10  1  1  0  0  0  0
 11 18  1  0  0  0  0
 14  8  1  0  0  0  0
 16  9  1  0  0  0  0
 17 10  1  0  0  0  0
 19 21  1  0  0  0  0
 19 18  1  0  0  0  0
 20 19  2  0  0  0  0
 21 24  1  0  0  0  0
 22 21  1  0  0  0  0
 23 21  1  0  0  0  0
M  RAD  3   2   2   3   3   4   2
M  END
