Coordinates from ORCA-job 4-MeOPhN2+~CF3COO-_B3LYPG-6-31G_dp-CH-Scan-d09-49-n800
 OpenBabel11261919493D

 24 23  0  0  0  0  0  0  0  0999 V2000
   -1.9156    0.0428   -0.2004 C   0  0  0  0  0  0  0  0  0  0  0  0
   -3.2783   -0.1327   -0.2778 N   0  0  0  0  0  0  0  0  0  0  0  0
   -4.3935   -0.2318   -0.3321 N   0  0  0  0  0  0  0  0  0  0  0  0
   -1.4987    1.3667    0.0798 C   0  0  0  0  0  0  0  0  0  0  0  0
   -0.0990    1.4446    0.1423 C   0  0  0  0  0  0  0  0  0  0  0  0
    0.7571    0.3471   -0.0481 C   0  0  0  0  0  0  0  0  0  0  0  0
    2.0818    0.5993    0.0512 O   0  0  0  0  0  0  0  0  0  0  0  0
    3.0192   -0.4587   -0.1190 C   0  0  0  0  0  0  0  0  0  0  0  0
    0.2409   -0.9497   -0.3282 C   0  0  0  0  0  0  0  0  0  0  0  0
   -1.1218   -1.1160   -0.4080 C   0  0  0  0  0  0  0  0  0  0  0  0
   -3.2250    3.3698    0.4282 H   0  0  0  0  0  0  0  0  0  0  0  0
    0.3926    2.3943    0.3513 H   0  0  0  0  0  0  0  0  0  0  0  0
    4.0029   -0.0077    0.0154 H   0  0  0  0  0  0  0  0  0  0  0  0
    2.9572   -0.8943   -1.1234 H   0  0  0  0  0  0  0  0  0  0  0  0
    2.8778   -1.2464    0.6305 H   0  0  0  0  0  0  0  0  0  0  0  0
    0.8972   -1.7975   -0.4777 H   0  0  0  0  0  0  0  0  0  0  0  0
   -1.5610   -2.0873   -0.6206 H   0  0  0  0  0  0  0  0  0  0  0  0
   -3.8927    4.0794    0.5514 O   0  0  0  0  0  0  0  0  0  0  0  0
   -5.1059    3.5521    0.4675 C   0  0  0  0  0  0  0  0  0  0  0  0
   -5.3948    2.3954    0.2728 O   0  0  0  0  0  0  0  0  0  0  0  0
   -6.1736    4.6534    0.6526 C   0  0  0  0  0  0  0  0  0  0  0  0
   -6.0614    5.5801   -0.3174 F   0  0  0  0  0  0  0  0  0  0  0  0
   -7.4010    4.1288    0.6002 F   0  0  0  0  0  0  0  0  0  0  0  0
   -6.0194    5.2667    1.8401 F   0  0  0  0  0  0  0  0  0  0  0  0
  1  4  2  0  0  0  0
  2  1  1  0  0  0  0
  3  2  1  0  0  0  0
  4  5  1  0  0  0  0
  5 12  1  0  0  0  0
  6  7  1  0  0  0  0
  6  5  2  0  0  0  0
  8 13  1  0  0  0  0
  8  7  1  0  0  0  0
  8 15  1  0  0  0  0
  9  6  1  0  0  0  0
 10  9  2  0  0  0  0
 10  1  1  0  0  0  0
 11 18  1  0  0  0  0
 14  8  1  0  0  0  0
 16  9  1  0  0  0  0
 17 10  1  0  0  0  0
 19 18  1  0  0  0  0
 19 21  1  0  0  0  0
 20 19  2  0  0  0  0
 21 24  1  0  0  0  0
 22 21  1  0  0  0  0
 23 21  1  0  0  0  0
M  RAD  3   2   2   3   3   4   2
M  END
