Coordinates from ORCA-job 4-MeOPhN2+~CF3COO-_B3LYPG-6-31G_dp-CH-Scan-d09-49-n800
 OpenBabel11261919493D

 24 23  0  0  0  0  0  0  0  0999 V2000
   -2.1816    0.0558   -0.2195 C   0  0  0  0  0  0  0  0  0  0  0  0
   -3.5304   -0.1971   -0.3194 N   0  0  0  0  0  0  0  0  0  0  0  0
   -4.6459   -0.2741   -0.3711 N   0  0  0  0  0  0  0  0  0  0  0  0
   -1.8194    1.3928    0.0597 C   0  0  0  0  0  0  0  0  0  0  0  0
   -0.4435    1.5811    0.1522 C   0  0  0  0  0  0  0  0  0  0  0  0
    0.4842    0.5350   -0.0174 C   0  0  0  0  0  0  0  0  0  0  0  0
    1.7810    0.8740    0.1039 O   0  0  0  0  0  0  0  0  0  0  0  0
    2.7921   -0.1214   -0.0443 C   0  0  0  0  0  0  0  0  0  0  0  0
    0.0484   -0.7860   -0.2984 C   0  0  0  0  0  0  0  0  0  0  0  0
   -1.3029   -1.0357   -0.4023 C   0  0  0  0  0  0  0  0  0  0  0  0
   -2.7780    2.4931    0.2422 H   0  0  0  0  0  0  0  0  0  0  0  0
   -0.0372    2.5667    0.3655 H   0  0  0  0  0  0  0  0  0  0  0  0
    3.7393    0.3970    0.1039 H   0  0  0  0  0  0  0  0  0  0  0  0
    2.7735   -0.5627   -1.0472 H   0  0  0  0  0  0  0  0  0  0  0  0
    2.6882   -0.9107    0.7090 H   0  0  0  0  0  0  0  0  0  0  0  0
    0.7549   -1.5950   -0.4316 H   0  0  0  0  0  0  0  0  0  0  0  0
   -1.6760   -2.0326   -0.6164 H   0  0  0  0  0  0  0  0  0  0  0  0
   -3.4678    3.4557    0.4088 O   0  0  0  0  0  0  0  0  0  0  0  0
   -4.7289    3.2002    0.4050 C   0  0  0  0  0  0  0  0  0  0  0  0
   -5.3082    2.1297    0.2387 O   0  0  0  0  0  0  0  0  0  0  0  0
   -5.5725    4.4792    0.6467 C   0  0  0  0  0  0  0  0  0  0  0  0
   -5.3649    5.3785   -0.3395 F   0  0  0  0  0  0  0  0  0  0  0  0
   -6.8859    4.2097    0.6877 F   0  0  0  0  0  0  0  0  0  0  0  0
   -5.2332    5.0656    1.8140 F   0  0  0  0  0  0  0  0  0  0  0  0
  1  4  2  0  0  0  0
  2  1  1  0  0  0  0
  3  2  1  0  0  0  0
  4  5  1  0  0  0  0
  5 12  1  0  0  0  0
  6  7  1  0  0  0  0
  6  5  2  0  0  0  0
  8  7  1  0  0  0  0
  8 13  1  0  0  0  0
  8 15  1  0  0  0  0
  9  6  1  0  0  0  0
 10  9  2  0  0  0  0
 10  1  1  0  0  0  0
 11 18  1  0  0  0  0
 14  8  1  0  0  0  0
 16  9  1  0  0  0  0
 17 10  1  0  0  0  0
 19 18  1  0  0  0  0
 19 21  1  0  0  0  0
 20 19  2  0  0  0  0
 21 23  1  0  0  0  0
 21 24  1  0  0  0  0
 22 21  1  0  0  0  0
M  RAD  3   2   2   3   3   4   2
M  END
