Coordinates from ORCA-job 4-MeOPhN2+~CF3COO-_B3LYPG-6-31G_dp-CH-Scan-d09-49-n800
 OpenBabel11261919493D

 24 23  0  0  0  0  0  0  0  0999 V2000
   -1.7037    0.0585   -0.1502 C   0  0  0  0  0  0  0  0  0  0  0  0
   -3.0783   -0.0276   -0.1932 N   0  0  0  0  0  0  0  0  0  0  0  0
   -4.1997   -0.0475   -0.2186 N   0  0  0  0  0  0  0  0  0  0  0  0
   -1.2129    1.3580    0.1230 C   0  0  0  0  0  0  0  0  0  0  0  0
    0.1937    1.3463    0.1470 C   0  0  0  0  0  0  0  0  0  0  0  0
    0.9775    0.2020   -0.0698 C   0  0  0  0  0  0  0  0  0  0  0  0
    2.3196    0.3737   -0.0079 O   0  0  0  0  0  0  0  0  0  0  0  0
    3.1851   -0.7366   -0.2127 C   0  0  0  0  0  0  0  0  0  0  0  0
    0.3797   -1.0632   -0.3383 C   0  0  0  0  0  0  0  0  0  0  0  0
   -0.9917   -1.1489   -0.3820 C   0  0  0  0  0  0  0  0  0  0  0  0
   -3.5138    3.9850    0.6260 H   0  0  0  0  0  0  0  0  0  0  0  0
    0.7496    2.2636    0.3445 H   0  0  0  0  0  0  0  0  0  0  0  0
    4.1986   -0.3462   -0.1121 H   0  0  0  0  0  0  0  0  0  0  0  0
    3.0631   -1.1647   -1.2152 H   0  0  0  0  0  0  0  0  0  0  0  0
    3.0239   -1.5186    0.5392 H   0  0  0  0  0  0  0  0  0  0  0  0
    0.9821   -1.9468   -0.5066 H   0  0  0  0  0  0  0  0  0  0  0  0
   -1.4940   -2.0918   -0.5845 H   0  0  0  0  0  0  0  0  0  0  0  0
   -4.2882    4.5708    0.6978 O   0  0  0  0  0  0  0  0  0  0  0  0
   -5.3846    3.8375    0.5009 C   0  0  0  0  0  0  0  0  0  0  0  0
   -5.4341    2.6556    0.2727 O   0  0  0  0  0  0  0  0  0  0  0  0
   -6.6398    4.7301    0.6145 C   0  0  0  0  0  0  0  0  0  0  0  0
   -6.5745    5.7483   -0.2611 F   0  0  0  0  0  0  0  0  0  0  0  0
   -7.7399    4.0174    0.3627 F   0  0  0  0  0  0  0  0  0  0  0  0
   -6.7323    5.2435    1.8544 F   0  0  0  0  0  0  0  0  0  0  0  0
  1  4  2  0  0  0  0
  2  1  1  0  0  0  0
  3  2  1  0  0  0  0
  4  5  1  0  0  0  0
  5 12  1  0  0  0  0
  6  7  1  0  0  0  0
  6  5  2  0  0  0  0
  8 13  1  0  0  0  0
  8  7  1  0  0  0  0
  8 15  1  0  0  0  0
  9  6  1  0  0  0  0
 10  9  2  0  0  0  0
 10  1  1  0  0  0  0
 11 18  1  0  0  0  0
 14  8  1  0  0  0  0
 16  9  1  0  0  0  0
 17 10  1  0  0  0  0
 19 21  1  0  0  0  0
 19 18  1  0  0  0  0
 20 19  2  0  0  0  0
 21 24  1  0  0  0  0
 22 21  1  0  0  0  0
 23 21  1  0  0  0  0
M  RAD  3   2   2   3   3   4   2
M  END
