Coordinates from ORCA-job 4-MeOPhN2+~CF3COO-_B3LYPG-6-31G_dp-CH-Scan-d09-49-n800
 OpenBabel11261919493D

 24 23  0  0  0  0  0  0  0  0999 V2000
   -1.7210    0.0570   -0.1522 C   0  0  0  0  0  0  0  0  0  0  0  0
   -3.0949   -0.0364   -0.1973 N   0  0  0  0  0  0  0  0  0  0  0  0
   -4.2160   -0.0633   -0.2243 N   0  0  0  0  0  0  0  0  0  0  0  0
   -1.2361    1.3587    0.1216 C   0  0  0  0  0  0  0  0  0  0  0  0
    0.1702    1.3542    0.1477 C   0  0  0  0  0  0  0  0  0  0  0  0
    0.9599    0.2136   -0.0679 C   0  0  0  0  0  0  0  0  0  0  0  0
    2.3010    0.3919   -0.0040 O   0  0  0  0  0  0  0  0  0  0  0  0
    3.1723   -0.7143   -0.2072 C   0  0  0  0  0  0  0  0  0  0  0  0
    0.3686   -1.0544   -0.3372 C   0  0  0  0  0  0  0  0  0  0  0  0
   -1.0024   -1.1467   -0.3828 C   0  0  0  0  0  0  0  0  0  0  0  0
   -3.4882    3.9368    0.6121 H   0  0  0  0  0  0  0  0  0  0  0  0
    0.7212    2.2742    0.3458 H   0  0  0  0  0  0  0  0  0  0  0  0
    4.1837   -0.3189   -0.1047 H   0  0  0  0  0  0  0  0  0  0  0  0
    3.0542   -1.1430   -1.2099 H   0  0  0  0  0  0  0  0  0  0  0  0
    3.0135   -1.4969    0.5445 H   0  0  0  0  0  0  0  0  0  0  0  0
    0.9754   -1.9352   -0.5045 H   0  0  0  0  0  0  0  0  0  0  0  0
   -1.4998   -2.0920   -0.5859 H   0  0  0  0  0  0  0  0  0  0  0  0
   -4.2545    4.5327    0.6874 O   0  0  0  0  0  0  0  0  0  0  0  0
   -5.3616    3.8145    0.4974 C   0  0  0  0  0  0  0  0  0  0  0  0
   -5.4294    2.6330    0.2710 O   0  0  0  0  0  0  0  0  0  0  0  0
   -6.6037    4.7246    0.6160 C   0  0  0  0  0  0  0  0  0  0  0  0
   -6.5294    5.7399   -0.2623 F   0  0  0  0  0  0  0  0  0  0  0  0
   -7.7151    4.0266    0.3718 F   0  0  0  0  0  0  0  0  0  0  0  0
   -6.6825    5.2420    1.8552 F   0  0  0  0  0  0  0  0  0  0  0  0
  1  4  2  0  0  0  0
  2  1  1  0  0  0  0
  3  2  1  0  0  0  0
  4  5  1  0  0  0  0
  5 12  1  0  0  0  0
  6  7  1  0  0  0  0
  6  5  2  0  0  0  0
  8 13  1  0  0  0  0
  8  7  1  0  0  0  0
  8 15  1  0  0  0  0
  9  6  1  0  0  0  0
 10  9  2  0  0  0  0
 10  1  1  0  0  0  0
 11 18  1  0  0  0  0
 14  8  1  0  0  0  0
 16  9  1  0  0  0  0
 17 10  1  0  0  0  0
 19 21  1  0  0  0  0
 19 18  1  0  0  0  0
 20 19  2  0  0  0  0
 21 24  1  0  0  0  0
 22 21  1  0  0  0  0
 23 21  1  0  0  0  0
M  RAD  3   2   2   3   3   4   2
M  END
