Coordinates from ORCA-job 4-MeOPhN2+~CF3COO-_B3LYPG-6-31G_dp-CH-Scan-d09-49-n800
 OpenBabel11261919493D

 24 23  0  0  0  0  0  0  0  0999 V2000
   -2.0246    0.0393   -0.2041 C   0  0  0  0  0  0  0  0  0  0  0  0
   -3.3793   -0.1816   -0.2909 N   0  0  0  0  0  0  0  0  0  0  0  0
   -4.4895   -0.3178   -0.3523 N   0  0  0  0  0  0  0  0  0  0  0  0
   -1.6425    1.3726    0.0831 C   0  0  0  0  0  0  0  0  0  0  0  0
   -0.2482    1.4938    0.1546 C   0  0  0  0  0  0  0  0  0  0  0  0
    0.6417    0.4222   -0.0345 C   0  0  0  0  0  0  0  0  0  0  0  0
    1.9560    0.7141    0.0738 O   0  0  0  0  0  0  0  0  0  0  0  0
    2.9267   -0.3150   -0.0927 C   0  0  0  0  0  0  0  0  0  0  0  0
    0.1645   -0.8868   -0.3217 C   0  0  0  0  0  0  0  0  0  0  0  0
   -1.1927   -1.0917   -0.4101 C   0  0  0  0  0  0  0  0  0  0  0  0
   -3.0831    3.0573    0.3813 H   0  0  0  0  0  0  0  0  0  0  0  0
    0.2114    2.4572    0.3702 H   0  0  0  0  0  0  0  0  0  0  0  0
    3.8949    0.1657    0.0497 H   0  0  0  0  0  0  0  0  0  0  0  0
    2.8841   -0.7488   -1.0987 H   0  0  0  0  0  0  0  0  0  0  0  0
    2.8035   -1.1081    0.6542 H   0  0  0  0  0  0  0  0  0  0  0  0
    0.8452   -1.7152   -0.4703 H   0  0  0  0  0  0  0  0  0  0  0  0
   -1.6018   -2.0745   -0.6283 H   0  0  0  0  0  0  0  0  0  0  0  0
   -3.7041    3.8261    0.5167 O   0  0  0  0  0  0  0  0  0  0  0  0
   -4.9535    3.4111    0.4453 C   0  0  0  0  0  0  0  0  0  0  0  0
   -5.3555    2.2857    0.2482 O   0  0  0  0  0  0  0  0  0  0  0  0
   -5.9229    4.5984    0.6451 C   0  0  0  0  0  0  0  0  0  0  0  0
   -5.7628    5.5041   -0.3392 F   0  0  0  0  0  0  0  0  0  0  0  0
   -7.1921    4.1784    0.6308 F   0  0  0  0  0  0  0  0  0  0  0  0
   -5.6899    5.2121    1.8202 F   0  0  0  0  0  0  0  0  0  0  0  0
  1  4  2  0  0  0  0
  2  1  1  0  0  0  0
  3  2  1  0  0  0  0
  4  5  1  0  0  0  0
  5 12  1  0  0  0  0
  6  7  1  0  0  0  0
  6  5  2  0  0  0  0
  8 13  1  0  0  0  0
  8  7  1  0  0  0  0
  8 15  1  0  0  0  0
  9  6  1  0  0  0  0
 10  9  2  0  0  0  0
 10  1  1  0  0  0  0
 11 18  1  0  0  0  0
 14  8  1  0  0  0  0
 16  9  1  0  0  0  0
 17 10  1  0  0  0  0
 19 18  1  0  0  0  0
 19 21  1  0  0  0  0
 20 19  2  0  0  0  0
 21 24  1  0  0  0  0
 22 21  1  0  0  0  0
 23 21  1  0  0  0  0
M  RAD  3   2   2   3   3   4   2
M  END
