Coordinates from ORCA-job 4-MeOPhN2+~CF3COO-_B3LYPG-6-31G_dp-CH-Scan-d09-49-n800
 OpenBabel11261919493D

 24 23  0  0  0  0  0  0  0  0999 V2000
   -1.7693    0.0536   -0.1575 C   0  0  0  0  0  0  0  0  0  0  0  0
   -3.1411   -0.0605   -0.2083 N   0  0  0  0  0  0  0  0  0  0  0  0
   -4.2611   -0.1065   -0.2416 N   0  0  0  0  0  0  0  0  0  0  0  0
   -1.3006    1.3611    0.1171 C   0  0  0  0  0  0  0  0  0  0  0  0
    0.1048    1.3765    0.1490 C   0  0  0  0  0  0  0  0  0  0  0  0
    0.9106    0.2462   -0.0627 C   0  0  0  0  0  0  0  0  0  0  0  0
    2.2484    0.4426    0.0064 O   0  0  0  0  0  0  0  0  0  0  0  0
    3.1356   -0.6519   -0.1920 C   0  0  0  0  0  0  0  0  0  0  0  0
    0.3369   -1.0293   -0.3333 C   0  0  0  0  0  0  0  0  0  0  0  0
   -1.0326   -1.1397   -0.3841 C   0  0  0  0  0  0  0  0  0  0  0  0
   -3.4171    3.8022    0.5734 H   0  0  0  0  0  0  0  0  0  0  0  0
    0.6421    2.3040    0.3487 H   0  0  0  0  0  0  0  0  0  0  0  0
    4.1409   -0.2428   -0.0847 H   0  0  0  0  0  0  0  0  0  0  0  0
    3.0280   -1.0825   -1.1950 H   0  0  0  0  0  0  0  0  0  0  0  0
    2.9835   -1.4361    0.5595 H   0  0  0  0  0  0  0  0  0  0  0  0
    0.9557   -1.9022   -0.4976 H   0  0  0  0  0  0  0  0  0  0  0  0
   -1.5164   -2.0918   -0.5884 H   0  0  0  0  0  0  0  0  0  0  0  0
   -4.1613    4.4258    0.6586 O   0  0  0  0  0  0  0  0  0  0  0  0
   -5.2965    3.7506    0.4877 C   0  0  0  0  0  0  0  0  0  0  0  0
   -5.4153    2.5716    0.2668 O   0  0  0  0  0  0  0  0  0  0  0  0
   -6.5016    4.7076    0.6200 C   0  0  0  0  0  0  0  0  0  0  0  0
   -6.4025    5.7155   -0.2645 F   0  0  0  0  0  0  0  0  0  0  0  0
   -7.6423    4.0511    0.3953 F   0  0  0  0  0  0  0  0  0  0  0  0
   -6.5435    5.2335    1.8574 F   0  0  0  0  0  0  0  0  0  0  0  0
  1  4  2  0  0  0  0
  2  1  1  0  0  0  0
  3  2  1  0  0  0  0
  4  5  1  0  0  0  0
  5 12  1  0  0  0  0
  6  7  1  0  0  0  0
  6  5  2  0  0  0  0
  8 13  1  0  0  0  0
  8  7  1  0  0  0  0
  8 15  1  0  0  0  0
  9  6  1  0  0  0  0
 10  9  2  0  0  0  0
 10  1  1  0  0  0  0
 11 18  1  0  0  0  0
 14  8  1  0  0  0  0
 16  9  1  0  0  0  0
 17 10  1  0  0  0  0
 19 21  1  0  0  0  0
 19 18  1  0  0  0  0
 20 19  2  0  0  0  0
 21 24  1  0  0  0  0
 22 21  1  0  0  0  0
 23 21  1  0  0  0  0
M  RAD  3   2   2   3   3   4   2
M  END
