Coordinates from ORCA-job 4-MeOPhN2+~CF3COO-_B3LYPG-6-31G_dp-CH-Scan-d09-49-n800
 OpenBabel11261919493D

 24 23  0  0  0  0  0  0  0  0999 V2000
   -2.0095    0.0399   -0.2038 C   0  0  0  0  0  0  0  0  0  0  0  0
   -3.3654   -0.1747   -0.2892 N   0  0  0  0  0  0  0  0  0  0  0  0
   -4.4763   -0.3063   -0.3496 N   0  0  0  0  0  0  0  0  0  0  0  0
   -1.6225    1.3719    0.0824 C   0  0  0  0  0  0  0  0  0  0  0  0
   -0.2273    1.4871    0.1527 C   0  0  0  0  0  0  0  0  0  0  0  0
    0.6578    0.4118   -0.0365 C   0  0  0  0  0  0  0  0  0  0  0  0
    1.9737    0.6981    0.0706 O   0  0  0  0  0  0  0  0  0  0  0  0
    2.9397   -0.3351   -0.0961 C   0  0  0  0  0  0  0  0  0  0  0  0
    0.1752   -0.8956   -0.3228 C   0  0  0  0  0  0  0  0  0  0  0  0
   -1.1828   -1.0951   -0.4100 C   0  0  0  0  0  0  0  0  0  0  0  0
   -3.1030    3.1010    0.3880 H   0  0  0  0  0  0  0  0  0  0  0  0
    0.2368    2.4487    0.3674 H   0  0  0  0  0  0  0  0  0  0  0  0
    3.9102    0.1413    0.0455 H   0  0  0  0  0  0  0  0  0  0  0  0
    2.8948   -0.7693   -1.1018 H   0  0  0  0  0  0  0  0  0  0  0  0
    2.8137   -1.1275    0.6512 H   0  0  0  0  0  0  0  0  0  0  0  0
    0.8525   -1.7267   -0.4715 H   0  0  0  0  0  0  0  0  0  0  0  0
   -1.5961   -2.0764   -0.6275 H   0  0  0  0  0  0  0  0  0  0  0  0
   -3.7297    3.8613    0.5218 O   0  0  0  0  0  0  0  0  0  0  0  0
   -4.9748    3.4305    0.4484 C   0  0  0  0  0  0  0  0  0  0  0  0
   -5.3611    2.3002    0.2510 O   0  0  0  0  0  0  0  0  0  0  0  0
   -5.9582    4.6064    0.6463 C   0  0  0  0  0  0  0  0  0  0  0  0
   -5.8052    5.5146   -0.3365 F   0  0  0  0  0  0  0  0  0  0  0  0
   -7.2220    4.1715    0.6278 F   0  0  0  0  0  0  0  0  0  0  0  0
   -5.7353    5.2211    1.8229 F   0  0  0  0  0  0  0  0  0  0  0  0
  1  4  2  0  0  0  0
  2  1  1  0  0  0  0
  3  2  1  0  0  0  0
  4  5  1  0  0  0  0
  5 12  1  0  0  0  0
  6  7  1  0  0  0  0
  6  5  2  0  0  0  0
  8 13  1  0  0  0  0
  8  7  1  0  0  0  0
  8 15  1  0  0  0  0
  9  6  1  0  0  0  0
 10  9  2  0  0  0  0
 10  1  1  0  0  0  0
 11 18  1  0  0  0  0
 14  8  1  0  0  0  0
 16  9  1  0  0  0  0
 17 10  1  0  0  0  0
 19 18  1  0  0  0  0
 19 21  1  0  0  0  0
 20 19  2  0  0  0  0
 21 24  1  0  0  0  0
 22 21  1  0  0  0  0
 23 21  1  0  0  0  0
M  RAD  3   2   2   3   3   4   2
M  END
