Coordinates from ORCA-job 4-MeOPhN2+~CF3COO-_B3LYPG-6-31G_dp-CH-Scan-d09-49-n800
 OpenBabel11261919493D

 24 23  0  0  0  0  0  0  0  0999 V2000
   -1.6677    0.0639   -0.1472 C   0  0  0  0  0  0  0  0  0  0  0  0
   -3.0437   -0.0056   -0.1866 N   0  0  0  0  0  0  0  0  0  0  0  0
   -4.1655   -0.0110   -0.2044 N   0  0  0  0  0  0  0  0  0  0  0  0
   -1.1635    1.3583    0.1251 C   0  0  0  0  0  0  0  0  0  0  0  0
    0.2434    1.3305    0.1453 C   0  0  0  0  0  0  0  0  0  0  0  0
    1.0140    0.1779   -0.0737 C   0  0  0  0  0  0  0  0  0  0  0  0
    2.3585    0.3347   -0.0155 O   0  0  0  0  0  0  0  0  0  0  0  0
    3.2109   -0.7849   -0.2235 C   0  0  0  0  0  0  0  0  0  0  0  0
    0.4019   -1.0809   -0.3409 C   0  0  0  0  0  0  0  0  0  0  0  0
   -0.9704   -1.1517   -0.3810 C   0  0  0  0  0  0  0  0  0  0  0  0
   -3.5673    4.0920    0.6536 H   0  0  0  0  0  0  0  0  0  0  0  0
    0.8102    2.2416    0.3412 H   0  0  0  0  0  0  0  0  0  0  0  0
    4.2291   -0.4057   -0.1264 H   0  0  0  0  0  0  0  0  0  0  0  0
    3.0808   -1.2116   -1.2256 H   0  0  0  0  0  0  0  0  0  0  0  0
    3.0439   -1.5652    0.5289 H   0  0  0  0  0  0  0  0  0  0  0  0
    0.9944   -1.9709   -0.5109 H   0  0  0  0  0  0  0  0  0  0  0  0
   -1.4837   -2.0890   -0.5823 H   0  0  0  0  0  0  0  0  0  0  0  0
   -4.3592    4.6540    0.7172 O   0  0  0  0  0  0  0  0  0  0  0  0
   -5.4304    3.8862    0.5082 C   0  0  0  0  0  0  0  0  0  0  0  0
   -5.4386    2.7039    0.2779 O   0  0  0  0  0  0  0  0  0  0  0  0
   -6.7146    4.7377    0.6116 C   0  0  0  0  0  0  0  0  0  0  0  0
   -6.6724    5.7618   -0.2583 F   0  0  0  0  0  0  0  0  0  0  0  0
   -7.7880    3.9911    0.3444 F   0  0  0  0  0  0  0  0  0  0  0  0
   -6.8366    5.2416    1.8529 F   0  0  0  0  0  0  0  0  0  0  0  0
  1  4  2  0  0  0  0
  2  1  1  0  0  0  0
  3  2  1  0  0  0  0
  4  5  1  0  0  0  0
  5 12  1  0  0  0  0
  6  7  1  0  0  0  0
  6  5  2  0  0  0  0
  8 13  1  0  0  0  0
  8  7  1  0  0  0  0
  8 15  1  0  0  0  0
  9  6  1  0  0  0  0
 10  9  2  0  0  0  0
 10  1  1  0  0  0  0
 11 18  1  0  0  0  0
 14  8  1  0  0  0  0
 16  9  1  0  0  0  0
 17 10  1  0  0  0  0
 19 21  1  0  0  0  0
 19 18  1  0  0  0  0
 20 19  2  0  0  0  0
 21 24  1  0  0  0  0
 22 21  1  0  0  0  0
 23 21  1  0  0  0  0
M  RAD  3   2   2   3   3   4   2
M  END
