Coordinates from ORCA-job 4-MeOPhN2+~CF3COO-_B3LYPG-6-31G_dp-CH-Scan-d09-49-n800
 OpenBabel11261919493D

 24 23  0  0  0  0  0  0  0  0999 V2000
   -2.1420    0.0416   -0.2168 C   0  0  0  0  0  0  0  0  0  0  0  0
   -3.4874   -0.2233   -0.3171 N   0  0  0  0  0  0  0  0  0  0  0  0
   -4.5931   -0.3823   -0.3860 N   0  0  0  0  0  0  0  0  0  0  0  0
   -1.7912    1.3840    0.0671 C   0  0  0  0  0  0  0  0  0  0  0  0
   -0.4058    1.5507    0.1528 C   0  0  0  0  0  0  0  0  0  0  0  0
    0.5176    0.5040   -0.0225 C   0  0  0  0  0  0  0  0  0  0  0  0
    1.8190    0.8361    0.0965 O   0  0  0  0  0  0  0  0  0  0  0  0
    2.8232   -0.1639   -0.0563 C   0  0  0  0  0  0  0  0  0  0  0  0
    0.0792   -0.8174   -0.3072 C   0  0  0  0  0  0  0  0  0  0  0  0
   -1.2715   -1.0604   -0.4076 C   0  0  0  0  0  0  0  0  0  0  0  0
   -2.9094    2.7121    0.2951 H   0  0  0  0  0  0  0  0  0  0  0  0
    0.0171    2.5300    0.3683 H   0  0  0  0  0  0  0  0  0  0  0  0
    3.7743    0.3480    0.0915 H   0  0  0  0  0  0  0  0  0  0  0  0
    2.8015   -0.6033   -1.0602 H   0  0  0  0  0  0  0  0  0  0  0  0
    2.7174   -0.9557    0.6944 H   0  0  0  0  0  0  0  0  0  0  0  0
    0.7832   -1.6278   -0.4453 H   0  0  0  0  0  0  0  0  0  0  0  0
   -1.6501   -2.0553   -0.6244 H   0  0  0  0  0  0  0  0  0  0  0  0
   -3.5140    3.5658    0.4458 O   0  0  0  0  0  0  0  0  0  0  0  0
   -4.7830    3.2635    0.4226 C   0  0  0  0  0  0  0  0  0  0  0  0
   -5.3017    2.1752    0.2495 O   0  0  0  0  0  0  0  0  0  0  0  0
   -5.6522    4.5241    0.6468 C   0  0  0  0  0  0  0  0  0  0  0  0
   -5.4505    5.4190   -0.3417 F   0  0  0  0  0  0  0  0  0  0  0  0
   -6.9547    4.2142    0.6701 F   0  0  0  0  0  0  0  0  0  0  0  0
   -5.3405    5.1197    1.8150 F   0  0  0  0  0  0  0  0  0  0  0  0
  1  4  2  0  0  0  0
  2  1  1  0  0  0  0
  3  2  1  0  0  0  0
  4  5  1  0  0  0  0
  5 12  1  0  0  0  0
  6  7  1  0  0  0  0
  6  5  2  0  0  0  0
  8 13  1  0  0  0  0
  8  7  1  0  0  0  0
  8 15  1  0  0  0  0
  9  6  1  0  0  0  0
 10  9  2  0  0  0  0
 10  1  1  0  0  0  0
 11 18  1  0  0  0  0
 14  8  1  0  0  0  0
 16  9  1  0  0  0  0
 17 10  1  0  0  0  0
 19 18  1  0  0  0  0
 19 21  1  0  0  0  0
 20 19  2  0  0  0  0
 21 23  1  0  0  0  0
 21 24  1  0  0  0  0
 22 21  1  0  0  0  0
M  RAD  3   2   2   3   3   4   2
M  END
