Coordinates from ORCA-job 4-MeOPhN2+~CF3COO-_B3LYPG-6-31G_dp-CH-Scan-d09-49-n800
 OpenBabel11261919493D

 24 23  0  0  0  0  0  0  0  0999 V2000
   -1.7742    0.0536   -0.1584 C   0  0  0  0  0  0  0  0  0  0  0  0
   -3.1458   -0.0624   -0.2102 N   0  0  0  0  0  0  0  0  0  0  0  0
   -4.2658   -0.1109   -0.2431 N   0  0  0  0  0  0  0  0  0  0  0  0
   -1.3070    1.3615    0.1163 C   0  0  0  0  0  0  0  0  0  0  0  0
    0.0982    1.3790    0.1490 C   0  0  0  0  0  0  0  0  0  0  0  0
    0.9055    0.2496   -0.0621 C   0  0  0  0  0  0  0  0  0  0  0  0
    2.2430    0.4478    0.0077 O   0  0  0  0  0  0  0  0  0  0  0  0
    3.1317   -0.6457   -0.1900 C   0  0  0  0  0  0  0  0  0  0  0  0
    0.3336   -1.0265   -0.3330 C   0  0  0  0  0  0  0  0  0  0  0  0
   -1.0358   -1.1387   -0.3845 C   0  0  0  0  0  0  0  0  0  0  0  0
   -3.4099    3.7884    0.5685 H   0  0  0  0  0  0  0  0  0  0  0  0
    0.6341    2.3072    0.3490 H   0  0  0  0  0  0  0  0  0  0  0  0
    4.1365   -0.2353   -0.0821 H   0  0  0  0  0  0  0  0  0  0  0  0
    3.0253   -1.0764   -1.1931 H   0  0  0  0  0  0  0  0  0  0  0  0
    2.9801   -1.4300    0.5614 H   0  0  0  0  0  0  0  0  0  0  0  0
    0.9535   -1.8987   -0.4969 H   0  0  0  0  0  0  0  0  0  0  0  0
   -1.5182   -2.0914   -0.5891 H   0  0  0  0  0  0  0  0  0  0  0  0
   -4.1518    4.4149    0.6546 O   0  0  0  0  0  0  0  0  0  0  0  0
   -5.2897    3.7440    0.4866 C   0  0  0  0  0  0  0  0  0  0  0  0
   -5.4139    2.5652    0.2669 O   0  0  0  0  0  0  0  0  0  0  0  0
   -6.4910    4.7055    0.6208 C   0  0  0  0  0  0  0  0  0  0  0  0
   -6.3901    5.7124   -0.2649 F   0  0  0  0  0  0  0  0  0  0  0  0
   -7.6346    4.0531    0.3991 F   0  0  0  0  0  0  0  0  0  0  0  0
   -6.5283    5.2328    1.8578 F   0  0  0  0  0  0  0  0  0  0  0  0
  1  4  2  0  0  0  0
  2  1  1  0  0  0  0
  3  2  1  0  0  0  0
  4  5  1  0  0  0  0
  5 12  1  0  0  0  0
  6  7  1  0  0  0  0
  6  5  2  0  0  0  0
  8 13  1  0  0  0  0
  8  7  1  0  0  0  0
  8 15  1  0  0  0  0
  9  6  1  0  0  0  0
 10  9  2  0  0  0  0
 10  1  1  0  0  0  0
 11 18  1  0  0  0  0
 14  8  1  0  0  0  0
 16  9  1  0  0  0  0
 17 10  1  0  0  0  0
 19 21  1  0  0  0  0
 19 18  1  0  0  0  0
 20 19  2  0  0  0  0
 21 24  1  0  0  0  0
 22 21  1  0  0  0  0
 23 21  1  0  0  0  0
M  RAD  3   2   2   3   3   4   2
M  END
