Coordinates from ORCA-job 4-MeOPhN2+~CF3COO-_B3LYPG-6-31G_dp-CH-Scan-d09-49-n800
 OpenBabel11261919493D

 24 23  0  0  0  0  0  0  0  0999 V2000
   -1.8073    0.0510   -0.1635 C   0  0  0  0  0  0  0  0  0  0  0  0
   -3.1771   -0.0790   -0.2200 N   0  0  0  0  0  0  0  0  0  0  0  0
   -4.2962   -0.1396   -0.2570 N   0  0  0  0  0  0  0  0  0  0  0  0
   -1.3514    1.3630    0.1116 C   0  0  0  0  0  0  0  0  0  0  0  0
    0.0529    1.3944    0.1489 C   0  0  0  0  0  0  0  0  0  0  0  0
    0.8714    0.2722   -0.0587 C   0  0  0  0  0  0  0  0  0  0  0  0
    2.2063    0.4830    0.0153 O   0  0  0  0  0  0  0  0  0  0  0  0
    3.1061   -0.6024   -0.1781 C   0  0  0  0  0  0  0  0  0  0  0  0
    0.3119   -1.0091   -0.3301 C   0  0  0  0  0  0  0  0  0  0  0  0
   -1.0562   -1.1339   -0.3860 C   0  0  0  0  0  0  0  0  0  0  0  0
   -3.3637    3.6924    0.5390 H   0  0  0  0  0  0  0  0  0  0  0  0
    0.5791    2.3278    0.3498 H   0  0  0  0  0  0  0  0  0  0  0  0
    4.1065   -0.1824   -0.0667 H   0  0  0  0  0  0  0  0  0  0  0  0
    3.0076   -1.0346   -1.1813 H   0  0  0  0  0  0  0  0  0  0  0  0
    2.9588   -1.3873    0.5733 H   0  0  0  0  0  0  0  0  0  0  0  0
    0.9402   -1.8758   -0.4913 H   0  0  0  0  0  0  0  0  0  0  0  0
   -1.5290   -2.0912   -0.5912 H   0  0  0  0  0  0  0  0  0  0  0  0
   -4.0891    4.3386    0.6323 O   0  0  0  0  0  0  0  0  0  0  0  0
   -5.2461    3.6996    0.4802 C   0  0  0  0  0  0  0  0  0  0  0  0
   -5.4074    2.5239    0.2658 O   0  0  0  0  0  0  0  0  0  0  0  0
   -6.4192    4.6940    0.6249 C   0  0  0  0  0  0  0  0  0  0  0  0
   -6.3023    5.6941   -0.2667 F   0  0  0  0  0  0  0  0  0  0  0  0
   -7.5829    4.0720    0.4202 F   0  0  0  0  0  0  0  0  0  0  0  0
   -6.4274    5.2278    1.8597 F   0  0  0  0  0  0  0  0  0  0  0  0
  1  4  2  0  0  0  0
  2  1  1  0  0  0  0
  3  2  1  0  0  0  0
  4  5  1  0  0  0  0
  5 12  1  0  0  0  0
  6  7  1  0  0  0  0
  6  5  2  0  0  0  0
  8 13  1  0  0  0  0
  8  7  1  0  0  0  0
  8 15  1  0  0  0  0
  9  6  1  0  0  0  0
 10  9  2  0  0  0  0
 10  1  1  0  0  0  0
 11 18  1  0  0  0  0
 14  8  1  0  0  0  0
 16  9  1  0  0  0  0
 17 10  1  0  0  0  0
 19 21  1  0  0  0  0
 19 18  1  0  0  0  0
 20 19  2  0  0  0  0
 21 24  1  0  0  0  0
 22 21  1  0  0  0  0
 23 21  1  0  0  0  0
M  RAD  3   2   2   3   3   4   2
M  END
