Coordinates from ORCA-job 4-MeOPhN2+~CF3COO-_B3LYPG-6-31G_dp-CH-Scan-d09-49-n800
 OpenBabel11261919493D

 24 23  0  0  0  0  0  0  0  0999 V2000
   -2.0436    0.0384   -0.2045 C   0  0  0  0  0  0  0  0  0  0  0  0
   -3.3967   -0.1904   -0.2932 N   0  0  0  0  0  0  0  0  0  0  0  0
   -4.5061   -0.3313   -0.3557 N   0  0  0  0  0  0  0  0  0  0  0  0
   -1.6675    1.3733    0.0838 C   0  0  0  0  0  0  0  0  0  0  0  0
   -0.2743    1.5019    0.1569 C   0  0  0  0  0  0  0  0  0  0  0  0
    0.6214    0.4351   -0.0320 C   0  0  0  0  0  0  0  0  0  0  0  0
    1.9337    0.7340    0.0777 O   0  0  0  0  0  0  0  0  0  0  0  0
    2.9103   -0.2897   -0.0885 C   0  0  0  0  0  0  0  0  0  0  0  0
    0.1512   -0.8759   -0.3203 C   0  0  0  0  0  0  0  0  0  0  0  0
   -1.2050   -1.0875   -0.4101 C   0  0  0  0  0  0  0  0  0  0  0  0
   -3.0579    3.0029    0.3725 H   0  0  0  0  0  0  0  0  0  0  0  0
    0.1794    2.4678    0.3736 H   0  0  0  0  0  0  0  0  0  0  0  0
    3.8757    0.1963    0.0550 H   0  0  0  0  0  0  0  0  0  0  0  0
    2.8708   -0.7232   -1.0946 H   0  0  0  0  0  0  0  0  0  0  0  0
    2.7906   -1.0837    0.6580 H   0  0  0  0  0  0  0  0  0  0  0  0
    0.8360   -1.7009   -0.4687 H   0  0  0  0  0  0  0  0  0  0  0  0
   -1.6089   -2.0722   -0.6292 H   0  0  0  0  0  0  0  0  0  0  0  0
   -3.6725    3.7826    0.5100 O   0  0  0  0  0  0  0  0  0  0  0  0
   -4.9267    3.3871    0.4415 C   0  0  0  0  0  0  0  0  0  0  0  0
   -5.3482    2.2679    0.2451 O   0  0  0  0  0  0  0  0  0  0  0  0
   -5.8788    4.5882    0.6435 C   0  0  0  0  0  0  0  0  0  0  0  0
   -5.7096    5.4910   -0.3421 F   0  0  0  0  0  0  0  0  0  0  0  0
   -7.1543    4.1869    0.6340 F   0  0  0  0  0  0  0  0  0  0  0  0
   -5.6335    5.2001    1.8173 F   0  0  0  0  0  0  0  0  0  0  0  0
  1  4  2  0  0  0  0
  2  1  1  0  0  0  0
  3  2  1  0  0  0  0
  4  5  1  0  0  0  0
  5 12  1  0  0  0  0
  6  7  1  0  0  0  0
  6  5  2  0  0  0  0
  8 13  1  0  0  0  0
  8  7  1  0  0  0  0
  8 15  1  0  0  0  0
  9  6  1  0  0  0  0
 10  9  2  0  0  0  0
 10  1  1  0  0  0  0
 11 18  1  0  0  0  0
 14  8  1  0  0  0  0
 16  9  1  0  0  0  0
 17 10  1  0  0  0  0
 19 18  1  0  0  0  0
 19 21  1  0  0  0  0
 20 19  2  0  0  0  0
 21 24  1  0  0  0  0
 22 21  1  0  0  0  0
 23 21  1  0  0  0  0
M  RAD  3   2   2   3   3   4   2
M  END
