Coordinates from ORCA-job 4-MeOPhN2+~CF3COO-_B3LYPG-6-31G_dp-CH-Scan-d09-49-n800
 OpenBabel11261919493D

 24 23  0  0  0  0  0  0  0  0999 V2000
   -2.1622    0.0455   -0.2209 C   0  0  0  0  0  0  0  0  0  0  0  0
   -3.5068   -0.2227   -0.3237 N   0  0  0  0  0  0  0  0  0  0  0  0
   -4.6130   -0.3760   -0.3926 N   0  0  0  0  0  0  0  0  0  0  0  0
   -1.8124    1.3881    0.0606 C   0  0  0  0  0  0  0  0  0  0  0  0
   -0.4298    1.5629    0.1500 C   0  0  0  0  0  0  0  0  0  0  0  0
    0.4977    0.5186   -0.0209 C   0  0  0  0  0  0  0  0  0  0  0  0
    1.7968    0.8559    0.1004 O   0  0  0  0  0  0  0  0  0  0  0  0
    2.8057   -0.1406   -0.0482 C   0  0  0  0  0  0  0  0  0  0  0  0
    0.0638   -0.8041   -0.3036 C   0  0  0  0  0  0  0  0  0  0  0  0
   -1.2862   -1.0520   -0.4068 C   0  0  0  0  0  0  0  0  0  0  0  0
   -2.8677    2.6399    0.2729 H   0  0  0  0  0  0  0  0  0  0  0  0
   -0.0138    2.5451    0.3644 H   0  0  0  0  0  0  0  0  0  0  0  0
    3.7542    0.3756    0.1005 H   0  0  0  0  0  0  0  0  0  0  0  0
    2.7875   -0.5819   -1.0513 H   0  0  0  0  0  0  0  0  0  0  0  0
    2.7011   -0.9309    0.7042 H   0  0  0  0  0  0  0  0  0  0  0  0
    0.7705   -1.6127   -0.4383 H   0  0  0  0  0  0  0  0  0  0  0  0
   -1.6606   -2.0486   -0.6223 H   0  0  0  0  0  0  0  0  0  0  0  0
   -3.4840    3.5220    0.4276 O   0  0  0  0  0  0  0  0  0  0  0  0
   -4.7525    3.2374    0.4189 C   0  0  0  0  0  0  0  0  0  0  0  0
   -5.2915    2.1548    0.2549 O   0  0  0  0  0  0  0  0  0  0  0  0
   -5.6084    4.5071    0.6487 C   0  0  0  0  0  0  0  0  0  0  0  0
   -5.4056    5.4007   -0.3415 F   0  0  0  0  0  0  0  0  0  0  0  0
   -6.9151    4.2134    0.6826 F   0  0  0  0  0  0  0  0  0  0  0  0
   -5.2822    5.1011    1.8144 F   0  0  0  0  0  0  0  0  0  0  0  0
  1  4  2  0  0  0  0
  2  1  1  0  0  0  0
  3  2  1  0  0  0  0
  4  5  1  0  0  0  0
  5 12  1  0  0  0  0
  6  7  1  0  0  0  0
  6  5  2  0  0  0  0
  8  7  1  0  0  0  0
  8 13  1  0  0  0  0
  8 15  1  0  0  0  0
  9  6  1  0  0  0  0
 10  9  2  0  0  0  0
 10  1  1  0  0  0  0
 11 18  1  0  0  0  0
 14  8  1  0  0  0  0
 16  9  1  0  0  0  0
 17 10  1  0  0  0  0
 19 18  1  0  0  0  0
 19 21  1  0  0  0  0
 20 19  2  0  0  0  0
 21 23  1  0  0  0  0
 21 24  1  0  0  0  0
 22 21  1  0  0  0  0
M  RAD  3   2   2   3   3   4   2
M  END
