Coordinates from ORCA-job 4-MeOPhN2+~CF3COO-_B3LYPG-6-31G_dp-CH-Scan-d09-49-n800
 OpenBabel11261919493D

 24 23  0  0  0  0  0  0  0  0999 V2000
   -2.3071    0.4792    0.3392 C   0  0  0  0  0  0  0  0  0  0  0  0
   -3.7063    0.3015    0.4087 N   0  0  0  0  0  0  0  0  0  0  0  0
   -4.5611   -0.4294    0.2995 N   0  0  0  0  0  0  0  0  0  0  0  0
   -1.6860    1.6326    0.8333 C   0  0  0  0  0  0  0  0  0  0  0  0
   -0.3071    1.7105    0.7542 C   0  0  0  0  0  0  0  0  0  0  0  0
    0.4480    0.6677    0.1844 C   0  0  0  0  0  0  0  0  0  0  0  0
    1.7807    0.8615    0.1557 O   0  0  0  0  0  0  0  0  0  0  0  0
    2.6176   -0.1400   -0.4209 C   0  0  0  0  0  0  0  0  0  0  0  0
   -0.1993   -0.4811   -0.3078 C   0  0  0  0  0  0  0  0  0  0  0  0
   -1.5809   -0.5775   -0.2259 C   0  0  0  0  0  0  0  0  0  0  0  0
   -2.1894    2.2994    1.1940 H   0  0  0  0  0  0  0  0  0  0  0  0
    0.2176    2.5841    1.1248 H   0  0  0  0  0  0  0  0  0  0  0  0
    3.6346    0.2442   -0.3415 H   0  0  0  0  0  0  0  0  0  0  0  0
    2.3714   -0.3043   -1.4761 H   0  0  0  0  0  0  0  0  0  0  0  0
    2.5425   -1.0856    0.1282 H   0  0  0  0  0  0  0  0  0  0  0  0
    0.3606   -1.2941   -0.7521 H   0  0  0  0  0  0  0  0  0  0  0  0
   -2.0973   -1.4534   -0.6020 H   0  0  0  0  0  0  0  0  0  0  0  0
   -4.3616    2.1956    1.0426 O   0  0  0  0  0  0  0  0  0  0  0  0
   -4.6110    2.7833   -0.0722 C   0  0  0  0  0  0  0  0  0  0  0  0
   -4.3277    2.4227   -1.2112 O   0  0  0  0  0  0  0  0  0  0  0  0
   -5.3299    4.1470    0.1376 C   0  0  0  0  0  0  0  0  0  0  0  0
   -5.7711    4.6637   -1.0184 F   0  0  0  0  0  0  0  0  0  0  0  0
   -6.3833    4.0334    0.9703 F   0  0  0  0  0  0  0  0  0  0  0  0
   -4.4684    5.0374    0.6860 F   0  0  0  0  0  0  0  0  0  0  0  0
  1  2  1  0  0  0  0
  1  4  2  0  0  0  0
  3  2  2  0  0  0  0
  4 11  1  0  0  0  0
  5  4  1  0  0  0  0
  5 12  1  0  0  0  0
  6  5  2  0  0  0  0
  7  6  1  0  0  0  0
  8 13  1  0  0  0  0
  8 15  1  0  0  0  0
  8  7  1  0  0  0  0
  9 10  2  0  0  0  0
  9  6  1  0  0  0  0
 10  1  1  0  0  0  0
 14  8  1  0  0  0  0
 16  9  1  0  0  0  0
 17 10  1  0  0  0  0
 19 21  1  0  0  0  0
 19 18  1  0  0  0  0
 20 19  2  0  0  0  0
 21 24  1  0  0  0  0
 21 23  1  0  0  0  0
 22 21  1  0  0  0  0
M  RAD  2   3   2  18   2
M  END
