Coordinates from ORCA-job 4-MeOPhN2+~CF3COO-_B3LYPG-6-31G_dp-CH-Scan-d09-49-n800
 OpenBabel11261919493D

 24 23  0  0  0  0  0  0  0  0999 V2000
   -1.7370    0.0561   -0.1540 C   0  0  0  0  0  0  0  0  0  0  0  0
   -3.1104   -0.0441   -0.2011 N   0  0  0  0  0  0  0  0  0  0  0  0
   -4.2312   -0.0777   -0.2296 N   0  0  0  0  0  0  0  0  0  0  0  0
   -1.2575    1.3596    0.1202 C   0  0  0  0  0  0  0  0  0  0  0  0
    0.1486    1.3617    0.1483 C   0  0  0  0  0  0  0  0  0  0  0  0
    0.9436    0.2245   -0.0661 C   0  0  0  0  0  0  0  0  0  0  0  0
    2.2836    0.4087   -0.0004 O   0  0  0  0  0  0  0  0  0  0  0  0
    3.1601   -0.6937   -0.2021 C   0  0  0  0  0  0  0  0  0  0  0  0
    0.3580   -1.0460   -0.3360 C   0  0  0  0  0  0  0  0  0  0  0  0
   -1.0125   -1.1442   -0.3834 C   0  0  0  0  0  0  0  0  0  0  0  0
   -3.4642    3.8922    0.5991 H   0  0  0  0  0  0  0  0  0  0  0  0
    0.6951    2.2841    0.3471 H   0  0  0  0  0  0  0  0  0  0  0  0
    4.1695   -0.2938   -0.0980 H   0  0  0  0  0  0  0  0  0  0  0  0
    3.0455   -1.1229   -1.2050 H   0  0  0  0  0  0  0  0  0  0  0  0
    3.0035   -1.4769    0.5494 H   0  0  0  0  0  0  0  0  0  0  0  0
    0.9688   -1.9242   -0.5024 H   0  0  0  0  0  0  0  0  0  0  0  0
   -1.5054   -2.0918   -0.5870 H   0  0  0  0  0  0  0  0  0  0  0  0
   -4.2233    4.4974    0.6776 O   0  0  0  0  0  0  0  0  0  0  0  0
   -5.3398    3.7932    0.4940 C   0  0  0  0  0  0  0  0  0  0  0  0
   -5.4245    2.6122    0.2695 O   0  0  0  0  0  0  0  0  0  0  0  0
   -6.5700    4.7188    0.6174 C   0  0  0  0  0  0  0  0  0  0  0  0
   -6.4876    5.7316   -0.2632 F   0  0  0  0  0  0  0  0  0  0  0  0
   -7.6913    4.0344    0.3801 F   0  0  0  0  0  0  0  0  0  0  0  0
   -6.6362    5.2395    1.8559 F   0  0  0  0  0  0  0  0  0  0  0  0
  1  4  2  0  0  0  0
  2  1  1  0  0  0  0
  3  2  1  0  0  0  0
  4  5  1  0  0  0  0
  5 12  1  0  0  0  0
  6  7  1  0  0  0  0
  6  5  2  0  0  0  0
  8 13  1  0  0  0  0
  8  7  1  0  0  0  0
  8 15  1  0  0  0  0
  9  6  1  0  0  0  0
 10  9  2  0  0  0  0
 10  1  1  0  0  0  0
 11 18  1  0  0  0  0
 14  8  1  0  0  0  0
 16  9  1  0  0  0  0
 17 10  1  0  0  0  0
 19 21  1  0  0  0  0
 19 18  1  0  0  0  0
 20 19  2  0  0  0  0
 21 24  1  0  0  0  0
 22 21  1  0  0  0  0
 23 21  1  0  0  0  0
M  RAD  3   2   2   3   3   4   2
M  END
