Coordinates from ORCA-job 4-MeOPhN2+~CF3COO-_B3LYPG-6-31G_dp-CH-Scan-d09-49-n800
 OpenBabel11261919493D

 24 23  0  0  0  0  0  0  0  0999 V2000
   -1.8170    0.0504   -0.1655 C   0  0  0  0  0  0  0  0  0  0  0  0
   -3.1863   -0.0837   -0.2234 N   0  0  0  0  0  0  0  0  0  0  0  0
   -4.3051   -0.1479   -0.2620 N   0  0  0  0  0  0  0  0  0  0  0  0
   -1.3645    1.3635    0.1095 C   0  0  0  0  0  0  0  0  0  0  0  0
    0.0396    1.3991    0.1485 C   0  0  0  0  0  0  0  0  0  0  0  0
    0.8613    0.2790   -0.0578 C   0  0  0  0  0  0  0  0  0  0  0  0
    2.1955    0.4935    0.0178 O   0  0  0  0  0  0  0  0  0  0  0  0
    3.0985   -0.5896   -0.1741 C   0  0  0  0  0  0  0  0  0  0  0  0
    0.3055   -1.0039   -0.3294 C   0  0  0  0  0  0  0  0  0  0  0  0
   -1.0622   -1.1324   -0.3867 C   0  0  0  0  0  0  0  0  0  0  0  0
   -3.3506    3.6635    0.5293 H   0  0  0  0  0  0  0  0  0  0  0  0
    0.5628    2.3340    0.3497 H   0  0  0  0  0  0  0  0  0  0  0  0
    4.0975   -0.1668   -0.0613 H   0  0  0  0  0  0  0  0  0  0  0  0
    3.0025   -1.0223   -1.1772 H   0  0  0  0  0  0  0  0  0  0  0  0
    2.9522   -1.3746    0.5775 H   0  0  0  0  0  0  0  0  0  0  0  0
    0.9362   -1.8690   -0.4896 H   0  0  0  0  0  0  0  0  0  0  0  0
   -1.5321   -2.0910   -0.5921 H   0  0  0  0  0  0  0  0  0  0  0  0
   -4.0708    4.3156    0.6249 O   0  0  0  0  0  0  0  0  0  0  0  0
   -5.2335    3.6863    0.4785 C   0  0  0  0  0  0  0  0  0  0  0  0
   -5.4061    2.5117    0.2661 O   0  0  0  0  0  0  0  0  0  0  0  0
   -6.3977    4.6906    0.6266 C   0  0  0  0  0  0  0  0  0  0  0  0
   -6.2769    5.6879   -0.2676 F   0  0  0  0  0  0  0  0  0  0  0  0
   -7.5675    4.0778    0.4285 F   0  0  0  0  0  0  0  0  0  0  0  0
   -6.3960    5.2270    1.8603 F   0  0  0  0  0  0  0  0  0  0  0  0
  1  4  2  0  0  0  0
  2  1  1  0  0  0  0
  3  2  1  0  0  0  0
  4  5  1  0  0  0  0
  5 12  1  0  0  0  0
  6  7  1  0  0  0  0
  6  5  2  0  0  0  0
  8 13  1  0  0  0  0
  8  7  1  0  0  0  0
  8 15  1  0  0  0  0
  9  6  1  0  0  0  0
 10  9  2  0  0  0  0
 10  1  1  0  0  0  0
 11 18  1  0  0  0  0
 14  8  1  0  0  0  0
 16  9  1  0  0  0  0
 17 10  1  0  0  0  0
 19 18  1  0  0  0  0
 19 21  1  0  0  0  0
 20 19  2  0  0  0  0
 21 24  1  0  0  0  0
 22 21  1  0  0  0  0
 23 21  1  0  0  0  0
M  RAD  3   2   2   3   3   4   2
M  END
