Coordinates from ORCA-job 4-MeOPhN2+~CF3COO-_B3LYPG-6-31G_dp-CH-Scan-d09-49-n800
 OpenBabel11261919493D

 24 23  0  0  0  0  0  0  0  0999 V2000
   -1.7494    0.0549   -0.1553 C   0  0  0  0  0  0  0  0  0  0  0  0
   -3.1221   -0.0506   -0.2039 N   0  0  0  0  0  0  0  0  0  0  0  0
   -4.2427   -0.0888   -0.2338 N   0  0  0  0  0  0  0  0  0  0  0  0
   -1.2741    1.3601    0.1192 C   0  0  0  0  0  0  0  0  0  0  0  0
    0.1317    1.3673    0.1487 C   0  0  0  0  0  0  0  0  0  0  0  0
    0.9309    0.2328   -0.0647 C   0  0  0  0  0  0  0  0  0  0  0  0
    2.2701    0.4217    0.0022 O   0  0  0  0  0  0  0  0  0  0  0  0
    3.1508   -0.6776   -0.1983 C   0  0  0  0  0  0  0  0  0  0  0  0
    0.3499   -1.0397   -0.3350 C   0  0  0  0  0  0  0  0  0  0  0  0
   -1.0202   -1.1426   -0.3837 C   0  0  0  0  0  0  0  0  0  0  0  0
   -3.4459    3.8577    0.5893 H   0  0  0  0  0  0  0  0  0  0  0  0
    0.6746    2.2917    0.3478 H   0  0  0  0  0  0  0  0  0  0  0  0
    4.1586   -0.2741   -0.0930 H   0  0  0  0  0  0  0  0  0  0  0  0
    3.0388   -1.1073   -1.2012 H   0  0  0  0  0  0  0  0  0  0  0  0
    2.9959   -1.4612    0.5532 H   0  0  0  0  0  0  0  0  0  0  0  0
    0.9638   -1.9158   -0.5006 H   0  0  0  0  0  0  0  0  0  0  0  0
   -1.5096   -2.0920   -0.5876 H   0  0  0  0  0  0  0  0  0  0  0  0
   -4.1994    4.4700    0.6703 O   0  0  0  0  0  0  0  0  0  0  0  0
   -5.3232    3.7769    0.4915 C   0  0  0  0  0  0  0  0  0  0  0  0
   -5.4209    2.5966    0.2683 O   0  0  0  0  0  0  0  0  0  0  0  0
   -6.5438    4.7146    0.6183 C   0  0  0  0  0  0  0  0  0  0  0  0
   -6.4549    5.7257   -0.2637 F   0  0  0  0  0  0  0  0  0  0  0  0
   -7.6727    4.0409    0.3858 F   0  0  0  0  0  0  0  0  0  0  0  0
   -6.6007    5.2374    1.8565 F   0  0  0  0  0  0  0  0  0  0  0  0
  1  4  2  0  0  0  0
  2  1  1  0  0  0  0
  3  2  1  0  0  0  0
  4  5  1  0  0  0  0
  5 12  1  0  0  0  0
  6  7  1  0  0  0  0
  6  5  2  0  0  0  0
  8 13  1  0  0  0  0
  8  7  1  0  0  0  0
  8 15  1  0  0  0  0
  9  6  1  0  0  0  0
 10  9  2  0  0  0  0
 10  1  1  0  0  0  0
 11 18  1  0  0  0  0
 14  8  1  0  0  0  0
 16  9  1  0  0  0  0
 17 10  1  0  0  0  0
 19 21  1  0  0  0  0
 19 18  1  0  0  0  0
 20 19  2  0  0  0  0
 21 24  1  0  0  0  0
 22 21  1  0  0  0  0
 23 21  1  0  0  0  0
M  RAD  3   2   2   3   3   4   2
M  END
