Coordinates from ORCA-job 4-MeOPhN2+~CF3COO-_B3LYPG-6-31G_dp-CH-Scan-d09-49-n800
 OpenBabel11261919493D

 24 23  0  0  0  0  0  0  0  0999 V2000
   -1.6420    0.0696   -0.1442 C   0  0  0  0  0  0  0  0  0  0  0  0
   -3.0188    0.0127   -0.1806 N   0  0  0  0  0  0  0  0  0  0  0  0
   -4.1407    0.0182   -0.1951 N   0  0  0  0  0  0  0  0  0  0  0  0
   -1.1271    1.3601    0.1266 C   0  0  0  0  0  0  0  0  0  0  0  0
    0.2798    1.3199    0.1438 C   0  0  0  0  0  0  0  0  0  0  0  0
    1.0401    0.1608   -0.0766 C   0  0  0  0  0  0  0  0  0  0  0  0
    2.3862    0.3062   -0.0217 O   0  0  0  0  0  0  0  0  0  0  0  0
    3.2284   -0.8206   -0.2319 C   0  0  0  0  0  0  0  0  0  0  0  0
    0.4169   -1.0930   -0.3420 C   0  0  0  0  0  0  0  0  0  0  0  0
   -0.9561   -1.1522   -0.3792 C   0  0  0  0  0  0  0  0  0  0  0  0
   -3.6058    4.1722    0.6759 H   0  0  0  0  0  0  0  0  0  0  0  0
    0.8550    2.2261    0.3381 H   0  0  0  0  0  0  0  0  0  0  0  0
    4.2501   -0.4501   -0.1381 H   0  0  0  0  0  0  0  0  0  0  0  0
    3.0917   -1.2466   -1.2335 H   0  0  0  0  0  0  0  0  0  0  0  0
    3.0571   -1.5994    0.5210 H   0  0  0  0  0  0  0  0  0  0  0  0
    1.0016   -1.9880   -0.5130 H   0  0  0  0  0  0  0  0  0  0  0  0
   -1.4778   -2.0852   -0.5789 H   0  0  0  0  0  0  0  0  0  0  0  0
   -4.4111    4.7153    0.7334 O   0  0  0  0  0  0  0  0  0  0  0  0
   -5.4616    3.9213    0.5140 C   0  0  0  0  0  0  0  0  0  0  0  0
   -5.4375    2.7398    0.2819 O   0  0  0  0  0  0  0  0  0  0  0  0
   -6.7675    4.7401    0.6085 C   0  0  0  0  0  0  0  0  0  0  0  0
   -6.7427    5.7692   -0.2562 F   0  0  0  0  0  0  0  0  0  0  0  0
   -7.8188    3.9677    0.3273 F   0  0  0  0  0  0  0  0  0  0  0  0
   -6.9140    5.2345    1.8509 F   0  0  0  0  0  0  0  0  0  0  0  0
  1  4  2  0  0  0  0
  2  1  1  0  0  0  0
  3  2  1  0  0  0  0
  4  5  1  0  0  0  0
  5 12  1  0  0  0  0
  6  7  1  0  0  0  0
  6  5  2  0  0  0  0
  8 13  1  0  0  0  0
  8  7  1  0  0  0  0
  8 15  1  0  0  0  0
  9  6  1  0  0  0  0
 10  9  2  0  0  0  0
 10  1  1  0  0  0  0
 11 18  1  0  0  0  0
 14  8  1  0  0  0  0
 16  9  1  0  0  0  0
 17 10  1  0  0  0  0
 19 21  1  0  0  0  0
 19 18  1  0  0  0  0
 20 19  2  0  0  0  0
 21 24  1  0  0  0  0
 22 21  1  0  0  0  0
 23 21  1  0  0  0  0
M  RAD  3   2   2   3   3   4   2
M  END
