Coordinates from ORCA-job 4-MeOPhN2+~CF3COO-_B3LYPG-6-31G_dp-CH-Scan-d09-49-n800
 OpenBabel11261919493D

 24 23  0  0  0  0  0  0  0  0999 V2000
   -2.0798    0.0375   -0.2055 C   0  0  0  0  0  0  0  0  0  0  0  0
   -3.4299   -0.2063   -0.2976 N   0  0  0  0  0  0  0  0  0  0  0  0
   -4.5376   -0.3569   -0.3621 N   0  0  0  0  0  0  0  0  0  0  0  0
   -1.7148    1.3753    0.0839 C   0  0  0  0  0  0  0  0  0  0  0  0
   -0.3239    1.5182    0.1600 C   0  0  0  0  0  0  0  0  0  0  0  0
    0.5828    0.4600   -0.0274 C   0  0  0  0  0  0  0  0  0  0  0  0
    1.8912    0.7721    0.0847 O   0  0  0  0  0  0  0  0  0  0  0  0
    2.8786   -0.2418   -0.0799 C   0  0  0  0  0  0  0  0  0  0  0  0
    0.1253   -0.8549   -0.3169 C   0  0  0  0  0  0  0  0  0  0  0  0
   -1.2288   -1.0789   -0.4093 C   0  0  0  0  0  0  0  0  0  0  0  0
   -3.0082    2.8987    0.3533 H   0  0  0  0  0  0  0  0  0  0  0  0
    0.1187    2.4887    0.3780 H   0  0  0  0  0  0  0  0  0  0  0  0
    3.8386    0.2541    0.0653 H   0  0  0  0  0  0  0  0  0  0  0  0
    2.8449   -0.6754   -1.0862 H   0  0  0  0  0  0  0  0  0  0  0  0
    2.7656   -1.0369    0.6665 H   0  0  0  0  0  0  0  0  0  0  0  0
    0.8178   -1.6735   -0.4642 H   0  0  0  0  0  0  0  0  0  0  0  0
   -1.6229   -2.0673   -0.6294 H   0  0  0  0  0  0  0  0  0  0  0  0
   -3.6131    3.7004    0.4952 O   0  0  0  0  0  0  0  0  0  0  0  0
   -4.8751    3.3416    0.4336 C   0  0  0  0  0  0  0  0  0  0  0  0
   -5.3331    2.2349    0.2388 O   0  0  0  0  0  0  0  0  0  0  0  0
   -5.7946    4.5675    0.6412 C   0  0  0  0  0  0  0  0  0  0  0  0
   -5.6079    5.4667   -0.3450 F   0  0  0  0  0  0  0  0  0  0  0  0
   -7.0814    4.2019    0.6394 F   0  0  0  0  0  0  0  0  0  0  0  0
   -5.5272    5.1732    1.8139 F   0  0  0  0  0  0  0  0  0  0  0  0
  1  4  2  0  0  0  0
  2  1  1  0  0  0  0
  3  2  1  0  0  0  0
  4  5  1  0  0  0  0
  5 12  1  0  0  0  0
  6  7  1  0  0  0  0
  6  5  2  0  0  0  0
  8 13  1  0  0  0  0
  8  7  1  0  0  0  0
  8 15  1  0  0  0  0
  9  6  1  0  0  0  0
 10  9  2  0  0  0  0
 10  1  1  0  0  0  0
 11 18  1  0  0  0  0
 14  8  1  0  0  0  0
 16  9  1  0  0  0  0
 17 10  1  0  0  0  0
 19 18  1  0  0  0  0
 19 21  1  0  0  0  0
 20 19  2  0  0  0  0
 21 24  1  0  0  0  0
 22 21  1  0  0  0  0
 23 21  1  0  0  0  0
M  RAD  3   2   2   3   3   4   2
M  END
