Coordinates from ORCA-job 4-MeOPhN2+~CF3COO-_B3LYPG-6-31G_dp-CH-Scan-d09-49-n800
 OpenBabel11261919493D

 24 23  0  0  0  0  0  0  0  0999 V2000
   -1.5787    0.0890   -0.1415 C   0  0  0  0  0  0  0  0  0  0  0  0
   -2.9568    0.0640   -0.1736 N   0  0  0  0  0  0  0  0  0  0  0  0
   -4.0784    0.0972   -0.1864 N   0  0  0  0  0  0  0  0  0  0  0  0
   -1.0355    1.3677    0.1296 C   0  0  0  0  0  0  0  0  0  0  0  0
    0.3708    1.2944    0.1431 C   0  0  0  0  0  0  0  0  0  0  0  0
    1.1039    0.1189   -0.0811 C   0  0  0  0  0  0  0  0  0  0  0  0
    2.4535    0.2335   -0.0300 O   0  0  0  0  0  0  0  0  0  0  0  0
    3.2689   -0.9116   -0.2462 C   0  0  0  0  0  0  0  0  0  0  0  0
    0.4518   -1.1205   -0.3463 C   0  0  0  0  0  0  0  0  0  0  0  0
   -0.9222   -1.1484   -0.3797 C   0  0  0  0  0  0  0  0  0  0  0  0
   -3.7026    4.3809    0.6978 H   0  0  0  0  0  0  0  0  0  0  0  0
    0.9673    2.1869    0.3373 H   0  0  0  0  0  0  0  0  0  0  0  0
    4.2993   -0.5646   -0.1563 H   0  0  0  0  0  0  0  0  0  0  0  0
    3.1181   -1.3325   -1.2479 H   0  0  0  0  0  0  0  0  0  0  0  0
    3.0835   -1.6879    0.5061 H   0  0  0  0  0  0  0  0  0  0  0  0
    1.0157   -2.0282   -0.5198 H   0  0  0  0  0  0  0  0  0  0  0  0
   -1.4657   -2.0692   -0.5788 H   0  0  0  0  0  0  0  0  0  0  0  0
   -4.5417    4.8703    0.7522 O   0  0  0  0  0  0  0  0  0  0  0  0
   -5.5363    4.0080    0.5245 C   0  0  0  0  0  0  0  0  0  0  0  0
   -5.4304    2.8315    0.2923 O   0  0  0  0  0  0  0  0  0  0  0  0
   -6.8947    4.7373    0.6112 C   0  0  0  0  0  0  0  0  0  0  0  0
   -6.9325    5.7689   -0.2497 F   0  0  0  0  0  0  0  0  0  0  0  0
   -7.8891    3.8971    0.3195 F   0  0  0  0  0  0  0  0  0  0  0  0
   -7.0828    5.2159    1.8542 F   0  0  0  0  0  0  0  0  0  0  0  0
  1  4  2  0  0  0  0
  2  1  1  0  0  0  0
  3  2  1  0  0  0  0
  4  5  1  0  0  0  0
  5 12  1  0  0  0  0
  6  7  1  0  0  0  0
  6  5  2  0  0  0  0
  8 13  1  0  0  0  0
  8  7  1  0  0  0  0
  8 15  1  0  0  0  0
  9  6  1  0  0  0  0
 10  9  2  0  0  0  0
 10  1  1  0  0  0  0
 11 18  1  0  0  0  0
 14  8  1  0  0  0  0
 16  9  1  0  0  0  0
 17 10  1  0  0  0  0
 19 21  1  0  0  0  0
 19 18  1  0  0  0  0
 20 19  2  0  0  0  0
 21 24  1  0  0  0  0
 22 21  1  0  0  0  0
 23 21  1  0  0  0  0
M  RAD  3   2   2   3   3   4   2
M  END
