Coordinates from ORCA-job 4-MeOPhN2+~CF3COO-_B3LYPG-6-31G_dp-CH-Scan-d09-49-n800
 OpenBabel11261919493D

 24 23  0  0  0  0  0  0  0  0999 V2000
   -1.7160    0.0576   -0.1516 C   0  0  0  0  0  0  0  0  0  0  0  0
   -3.0902   -0.0337   -0.1960 N   0  0  0  0  0  0  0  0  0  0  0  0
   -4.2114   -0.0586   -0.2227 N   0  0  0  0  0  0  0  0  0  0  0  0
   -1.2294    1.3585    0.1220 C   0  0  0  0  0  0  0  0  0  0  0  0
    0.1770    1.3520    0.1475 C   0  0  0  0  0  0  0  0  0  0  0  0
    0.9650    0.2103   -0.0684 C   0  0  0  0  0  0  0  0  0  0  0  0
    2.3064    0.3867   -0.0051 O   0  0  0  0  0  0  0  0  0  0  0  0
    3.1759   -0.7207   -0.2088 C   0  0  0  0  0  0  0  0  0  0  0  0
    0.3717   -1.0568   -0.3375 C   0  0  0  0  0  0  0  0  0  0  0  0
   -0.9994   -1.1472   -0.3825 C   0  0  0  0  0  0  0  0  0  0  0  0
   -3.4955    3.9505    0.6161 H   0  0  0  0  0  0  0  0  0  0  0  0
    0.7294    2.2712    0.3455 H   0  0  0  0  0  0  0  0  0  0  0  0
    4.1880   -0.3268   -0.1069 H   0  0  0  0  0  0  0  0  0  0  0  0
    3.0567   -1.1492   -1.2115 H   0  0  0  0  0  0  0  0  0  0  0  0
    3.0164   -1.5032    0.5429 H   0  0  0  0  0  0  0  0  0  0  0  0
    0.9772   -1.9385   -0.5051 H   0  0  0  0  0  0  0  0  0  0  0  0
   -1.4982   -2.0919   -0.5854 H   0  0  0  0  0  0  0  0  0  0  0  0
   -4.2642    4.5435    0.6904 O   0  0  0  0  0  0  0  0  0  0  0  0
   -5.3681    3.8210    0.4984 C   0  0  0  0  0  0  0  0  0  0  0  0
   -5.4308    2.6393    0.2714 O   0  0  0  0  0  0  0  0  0  0  0  0
   -6.6140    4.7260    0.6155 C   0  0  0  0  0  0  0  0  0  0  0  0
   -6.5423    5.7422   -0.2620 F   0  0  0  0  0  0  0  0  0  0  0  0
   -7.7222    4.0239    0.3692 F   0  0  0  0  0  0  0  0  0  0  0  0
   -6.6967    5.2424    1.8549 F   0  0  0  0  0  0  0  0  0  0  0  0
  1  4  2  0  0  0  0
  2  1  1  0  0  0  0
  3  2  1  0  0  0  0
  4  5  1  0  0  0  0
  5 12  1  0  0  0  0
  6  7  1  0  0  0  0
  6  5  2  0  0  0  0
  8 13  1  0  0  0  0
  8  7  1  0  0  0  0
  8 15  1  0  0  0  0
  9  6  1  0  0  0  0
 10  9  2  0  0  0  0
 10  1  1  0  0  0  0
 11 18  1  0  0  0  0
 14  8  1  0  0  0  0
 16  9  1  0  0  0  0
 17 10  1  0  0  0  0
 19 21  1  0  0  0  0
 19 18  1  0  0  0  0
 20 19  2  0  0  0  0
 21 24  1  0  0  0  0
 22 21  1  0  0  0  0
 23 21  1  0  0  0  0
M  RAD  3   2   2   3   3   4   2
M  END
