Coordinates from ORCA-job 4-MeOPhN2+~CF3COO-_B3LYPG-6-31G_dp-CH-Scan-d09-49-n800
 OpenBabel11261919493D

 24 23  0  0  0  0  0  0  0  0999 V2000
   -2.2737    0.4838    0.3718 C   0  0  0  0  0  0  0  0  0  0  0  0
   -3.6714    0.3223    0.4592 N   0  0  0  0  0  0  0  0  0  0  0  0
   -4.5495   -0.3810    0.3729 N   0  0  0  0  0  0  0  0  0  0  0  0
   -1.6219    1.6041    0.8931 C   0  0  0  0  0  0  0  0  0  0  0  0
   -0.2468    1.6776    0.8082 C   0  0  0  0  0  0  0  0  0  0  0  0
    0.4832    0.6410    0.1923 C   0  0  0  0  0  0  0  0  0  0  0  0
    1.8180    0.8149    0.1513 O   0  0  0  0  0  0  0  0  0  0  0  0
    2.6320   -0.1765   -0.4738 C   0  0  0  0  0  0  0  0  0  0  0  0
   -0.1871   -0.4824   -0.3304 C   0  0  0  0  0  0  0  0  0  0  0  0
   -1.5684   -0.5652   -0.2365 C   0  0  0  0  0  0  0  0  0  0  0  0
   -2.3417    2.4823    1.4046 H   0  0  0  0  0  0  0  0  0  0  0  0
    0.2953    2.5298    1.2013 H   0  0  0  0  0  0  0  0  0  0  0  0
    3.6552    0.1916   -0.3978 H   0  0  0  0  0  0  0  0  0  0  0  0
    2.3665   -0.3005   -1.5298 H   0  0  0  0  0  0  0  0  0  0  0  0
    2.5530   -1.1397    0.0434 H   0  0  0  0  0  0  0  0  0  0  0  0
    0.3574   -1.2873   -0.8073 H   0  0  0  0  0  0  0  0  0  0  0  0
   -2.1001   -1.4222   -0.6350 H   0  0  0  0  0  0  0  0  0  0  0  0
   -4.3437    2.2806    1.0874 O   0  0  0  0  0  0  0  0  0  0  0  0
   -4.5984    2.8072   -0.0546 C   0  0  0  0  0  0  0  0  0  0  0  0
   -4.2905    2.4012   -1.1731 O   0  0  0  0  0  0  0  0  0  0  0  0
   -5.3895    4.1400    0.0800 C   0  0  0  0  0  0  0  0  0  0  0  0
   -5.6970    4.6670   -1.1142 F   0  0  0  0  0  0  0  0  0  0  0  0
   -6.5402    3.9563    0.7601 F   0  0  0  0  0  0  0  0  0  0  0  0
   -4.6555    5.0535    0.7574 F   0  0  0  0  0  0  0  0  0  0  0  0
  1  2  1  0  0  0  0
  1  4  2  0  0  0  0
  3  2  2  0  0  0  0
  4 11  1  0  0  0  0
  5  4  1  0  0  0  0
  5 12  1  0  0  0  0
  6  5  2  0  0  0  0
  7  6  1  0  0  0  0
  8 13  1  0  0  0  0
  8 15  1  0  0  0  0
  8  7  1  0  0  0  0
  9 10  2  0  0  0  0
  9  6  1  0  0  0  0
 10  1  1  0  0  0  0
 14  8  1  0  0  0  0
 16  9  1  0  0  0  0
 17 10  1  0  0  0  0
 19 21  1  0  0  0  0
 19 18  1  0  0  0  0
 20 19  2  0  0  0  0
 21 24  1  0  0  0  0
 21 23  1  0  0  0  0
 22 21  1  0  0  0  0
M  RAD  2   3   2  18   2
M  END
