Coordinates from ORCA-job 4-MeOPhN2+~CF3COO-_B3LYPG-6-31G_dp-CH-Scan-d09-49-n800
 OpenBabel11261919493D

 24 23  0  0  0  0  0  0  0  0999 V2000
   -1.5775    0.0892   -0.1426 C   0  0  0  0  0  0  0  0  0  0  0  0
   -2.9556    0.0648   -0.1746 N   0  0  0  0  0  0  0  0  0  0  0  0
   -4.0772    0.0992   -0.1895 N   0  0  0  0  0  0  0  0  0  0  0  0
   -1.0340    1.3680    0.1273 C   0  0  0  0  0  0  0  0  0  0  0  0
    0.3723    1.2942    0.1411 C   0  0  0  0  0  0  0  0  0  0  0  0
    1.1050    0.1182   -0.0818 C   0  0  0  0  0  0  0  0  0  0  0  0
    2.4546    0.2323   -0.0305 O   0  0  0  0  0  0  0  0  0  0  0  0
    3.2697   -0.9132   -0.2454 C   0  0  0  0  0  0  0  0  0  0  0  0
    0.4525   -1.1212   -0.3459 C   0  0  0  0  0  0  0  0  0  0  0  0
   -0.9215   -1.1487   -0.3796 C   0  0  0  0  0  0  0  0  0  0  0  0
   -3.7046    4.3843    0.6986 H   0  0  0  0  0  0  0  0  0  0  0  0
    0.9691    2.1867    0.3346 H   0  0  0  0  0  0  0  0  0  0  0  0
    4.3001   -0.5666   -0.1555 H   0  0  0  0  0  0  0  0  0  0  0  0
    3.1190   -1.3351   -1.2468 H   0  0  0  0  0  0  0  0  0  0  0  0
    3.0837   -1.6888    0.5076 H   0  0  0  0  0  0  0  0  0  0  0  0
    1.0161   -2.0293   -0.5185 H   0  0  0  0  0  0  0  0  0  0  0  0
   -1.4652   -2.0694   -0.5779 H   0  0  0  0  0  0  0  0  0  0  0  0
   -4.5441    4.8729    0.7534 O   0  0  0  0  0  0  0  0  0  0  0  0
   -5.5378    4.0096    0.5250 C   0  0  0  0  0  0  0  0  0  0  0  0
   -5.4303    2.8335    0.2918 O   0  0  0  0  0  0  0  0  0  0  0  0
   -6.8970    4.7374    0.6122 C   0  0  0  0  0  0  0  0  0  0  0  0
   -6.9363    5.7689   -0.2487 F   0  0  0  0  0  0  0  0  0  0  0  0
   -7.8905    3.8959    0.3208 F   0  0  0  0  0  0  0  0  0  0  0  0
   -7.0853    5.2156    1.8553 F   0  0  0  0  0  0  0  0  0  0  0  0
  1  4  2  0  0  0  0
  2  1  1  0  0  0  0
  3  2  1  0  0  0  0
  4  5  1  0  0  0  0
  5 12  1  0  0  0  0
  6  7  1  0  0  0  0
  6  5  2  0  0  0  0
  8 13  1  0  0  0  0
  8  7  1  0  0  0  0
  8 15  1  0  0  0  0
  9  6  1  0  0  0  0
 10  9  2  0  0  0  0
 10  1  1  0  0  0  0
 11 18  1  0  0  0  0
 14  8  1  0  0  0  0
 16  9  1  0  0  0  0
 17 10  1  0  0  0  0
 19 21  1  0  0  0  0
 19 18  1  0  0  0  0
 20 19  2  0  0  0  0
 21 24  1  0  0  0  0
 22 21  1  0  0  0  0
 23 21  1  0  0  0  0
M  RAD  3   2   2   3   3   4   2
M  END
