Coordinates from ORCA-job 4-MeOPhN2+~CF3COO-_B3LYPG-6-31G_dp-CH-Scan-d09-49-n800
 OpenBabel11261919493D

 24 23  0  0  0  0  0  0  0  0999 V2000
   -2.1751    0.0685   -0.2154 C   0  0  0  0  0  0  0  0  0  0  0  0
   -3.5296   -0.1640   -0.3099 N   0  0  0  0  0  0  0  0  0  0  0  0
   -4.6502   -0.1660   -0.3431 N   0  0  0  0  0  0  0  0  0  0  0  0
   -1.7948    1.3989    0.0610 C   0  0  0  0  0  0  0  0  0  0  0  0
   -0.4218    1.5878    0.1526 C   0  0  0  0  0  0  0  0  0  0  0  0
    0.4981    0.5338   -0.0175 C   0  0  0  0  0  0  0  0  0  0  0  0
    1.7966    0.8653    0.1013 O   0  0  0  0  0  0  0  0  0  0  0  0
    2.8013   -0.1367   -0.0478 C   0  0  0  0  0  0  0  0  0  0  0  0
    0.0516   -0.7830   -0.2959 C   0  0  0  0  0  0  0  0  0  0  0  0
   -1.3026   -1.0247   -0.3976 C   0  0  0  0  0  0  0  0  0  0  0  0
   -2.7307    2.4408    0.2301 H   0  0  0  0  0  0  0  0  0  0  0  0
   -0.0137    2.5725    0.3640 H   0  0  0  0  0  0  0  0  0  0  0  0
    3.7518    0.3761    0.0984 H   0  0  0  0  0  0  0  0  0  0  0  0
    2.7779   -0.5785   -1.0503 H   0  0  0  0  0  0  0  0  0  0  0  0
    2.6933   -0.9245    0.7065 H   0  0  0  0  0  0  0  0  0  0  0  0
    0.7523   -1.5970   -0.4292 H   0  0  0  0  0  0  0  0  0  0  0  0
   -1.6821   -2.0195   -0.6097 H   0  0  0  0  0  0  0  0  0  0  0  0
   -3.4929    3.4438    0.4009 O   0  0  0  0  0  0  0  0  0  0  0  0
   -4.7465    3.1921    0.3958 C   0  0  0  0  0  0  0  0  0  0  0  0
   -5.3413    2.1244    0.2241 O   0  0  0  0  0  0  0  0  0  0  0  0
   -5.5966    4.4675    0.6452 C   0  0  0  0  0  0  0  0  0  0  0  0
   -5.3887    5.3751   -0.3337 F   0  0  0  0  0  0  0  0  0  0  0  0
   -6.9111    4.1995    0.6829 F   0  0  0  0  0  0  0  0  0  0  0  0
   -5.2599    5.0462    1.8176 F   0  0  0  0  0  0  0  0  0  0  0  0
  1  4  2  0  0  0  0
  2  1  1  0  0  0  0
  3  2  1  0  0  0  0
  4  5  1  0  0  0  0
  5 12  1  0  0  0  0
  6  7  1  0  0  0  0
  6  5  2  0  0  0  0
  8 13  1  0  0  0  0
  8  7  1  0  0  0  0
  8 15  1  0  0  0  0
  9  6  1  0  0  0  0
 10  9  2  0  0  0  0
 10  1  1  0  0  0  0
 11 18  1  0  0  0  0
 14  8  1  0  0  0  0
 16  9  1  0  0  0  0
 17 10  1  0  0  0  0
 19 18  1  0  0  0  0
 19 21  1  0  0  0  0
 20 19  2  0  0  0  0
 21 23  1  0  0  0  0
 21 24  1  0  0  0  0
 22 21  1  0  0  0  0
M  RAD  3   2   2   3   3   4   2
M  END
