Coordinates from ORCA-job 4-MeOPhN2+~CF3COO-_B3LYPG-6-31G_dp-CH-Scan-d09-49-n800
 OpenBabel11261919493D

 24 23  0  0  0  0  0  0  0  0999 V2000
   -2.1409    0.0415   -0.2165 C   0  0  0  0  0  0  0  0  0  0  0  0
   -3.4864   -0.2231   -0.3167 N   0  0  0  0  0  0  0  0  0  0  0  0
   -4.5921   -0.3821   -0.3856 N   0  0  0  0  0  0  0  0  0  0  0  0
   -1.7899    1.3838    0.0675 C   0  0  0  0  0  0  0  0  0  0  0  0
   -0.4044    1.5500    0.1530 C   0  0  0  0  0  0  0  0  0  0  0  0
    0.5187    0.5032   -0.0226 C   0  0  0  0  0  0  0  0  0  0  0  0
    1.8202    0.8350    0.0963 O   0  0  0  0  0  0  0  0  0  0  0  0
    2.8242   -0.1652   -0.0568 C   0  0  0  0  0  0  0  0  0  0  0  0
    0.0800   -0.8181   -0.3074 C   0  0  0  0  0  0  0  0  0  0  0  0
   -1.2708   -1.0608   -0.4076 C   0  0  0  0  0  0  0  0  0  0  0  0
   -2.9114    2.7157    0.2963 H   0  0  0  0  0  0  0  0  0  0  0  0
    0.0188    2.5292    0.3686 H   0  0  0  0  0  0  0  0  0  0  0  0
    3.7754    0.3464    0.0910 H   0  0  0  0  0  0  0  0  0  0  0  0
    2.8023   -0.6045   -1.0607 H   0  0  0  0  0  0  0  0  0  0  0  0
    2.7182   -0.9571    0.6939 H   0  0  0  0  0  0  0  0  0  0  0  0
    0.7839   -1.6286   -0.4457 H   0  0  0  0  0  0  0  0  0  0  0  0
   -1.6496   -2.0555   -0.6246 H   0  0  0  0  0  0  0  0  0  0  0  0
   -3.5156    3.5681    0.4468 O   0  0  0  0  0  0  0  0  0  0  0  0
   -4.7846    3.2648    0.4228 C   0  0  0  0  0  0  0  0  0  0  0  0
   -5.3022    2.1762    0.2493 O   0  0  0  0  0  0  0  0  0  0  0  0
   -5.6547    4.5249    0.6467 C   0  0  0  0  0  0  0  0  0  0  0  0
   -5.4531    5.4198   -0.3419 F   0  0  0  0  0  0  0  0  0  0  0  0
   -6.9569    4.2140    0.6694 F   0  0  0  0  0  0  0  0  0  0  0  0
   -5.3438    5.1207    1.8149 F   0  0  0  0  0  0  0  0  0  0  0  0
  1  4  2  0  0  0  0
  2  1  1  0  0  0  0
  3  2  1  0  0  0  0
  4  5  1  0  0  0  0
  5 12  1  0  0  0  0
  6  7  1  0  0  0  0
  6  5  2  0  0  0  0
  8 13  1  0  0  0  0
  8  7  1  0  0  0  0
  8 15  1  0  0  0  0
  9  6  1  0  0  0  0
 10  9  2  0  0  0  0
 10  1  1  0  0  0  0
 11 18  1  0  0  0  0
 14  8  1  0  0  0  0
 16  9  1  0  0  0  0
 17 10  1  0  0  0  0
 19 18  1  0  0  0  0
 19 21  1  0  0  0  0
 20 19  2  0  0  0  0
 21 23  1  0  0  0  0
 21 24  1  0  0  0  0
 22 21  1  0  0  0  0
M  RAD  3   2   2   3   3   4   2
M  END
