Coordinates from ORCA-job 4-MeOPhN2+~CF3COO-_B3LYPG-6-31G_dp-CH-Scan-d09-49-n800
 OpenBabel11261919493D

 24 23  0  0  0  0  0  0  0  0999 V2000
   -2.2266    0.3683   -0.1969 C   0  0  0  0  0  0  0  0  0  0  0  0
   -3.5935    0.1361   -0.3456 N   0  0  0  0  0  0  0  0  0  0  0  0
   -4.5334   -0.4383   -0.5562 N   0  0  0  0  0  0  0  0  0  0  0  0
   -1.6878    1.6231    0.1352 C   0  0  0  0  0  0  0  0  0  0  0  0
   -0.3074    1.6869    0.2403 C   0  0  0  0  0  0  0  0  0  0  0  0
    0.5121    0.5623    0.0288 C   0  0  0  0  0  0  0  0  0  0  0  0
    1.8349    0.7636    0.1649 O   0  0  0  0  0  0  0  0  0  0  0  0
    2.7373   -0.3248   -0.0280 C   0  0  0  0  0  0  0  0  0  0  0  0
   -0.0646   -0.6848   -0.3049 C   0  0  0  0  0  0  0  0  0  0  0  0
   -1.4367   -0.7840   -0.4189 C   0  0  0  0  0  0  0  0  0  0  0  0
   -2.4361    2.6853    0.3412 H   0  0  0  0  0  0  0  0  0  0  0  0
    0.1780    2.6239    0.4945 H   0  0  0  0  0  0  0  0  0  0  0  0
    3.7331    0.0852    0.1399 H   0  0  0  0  0  0  0  0  0  0  0  0
    2.6739   -0.7180   -1.0490 H   0  0  0  0  0  0  0  0  0  0  0  0
    2.5491   -1.1297    0.6913 H   0  0  0  0  0  0  0  0  0  0  0  0
    0.5462   -1.5626   -0.4731 H   0  0  0  0  0  0  0  0  0  0  0  0
   -1.9036   -1.7297   -0.6752 H   0  0  0  0  0  0  0  0  0  0  0  0
   -3.3315    3.8433    0.5742 O   0  0  0  0  0  0  0  0  0  0  0  0
   -4.4632    3.3179    0.4195 C   0  0  0  0  0  0  0  0  0  0  0  0
   -4.7375    2.1306    0.1358 O   0  0  0  0  0  0  0  0  0  0  0  0
   -5.6929    4.2509    0.5917 C   0  0  0  0  0  0  0  0  0  0  0  0
   -6.3866    4.3290   -0.5650 F   0  0  0  0  0  0  0  0  0  0  0  0
   -6.5272    3.7657    1.5360 F   0  0  0  0  0  0  0  0  0  0  0  0
   -5.3506    5.4985    0.9495 F   0  0  0  0  0  0  0  0  0  0  0  0
  1  4  2  0  0  0  0
  2  1  1  0  0  0  0
  3  2  1  0  0  0  0
  4  5  1  0  0  0  0
  4 11  1  0  0  0  0
  5 12  1  0  0  0  0
  6  7  1  0  0  0  0
  6  5  2  0  0  0  0
  8 13  1  0  0  0  0
  8  7  1  0  0  0  0
  8 15  1  0  0  0  0
  9  6  1  0  0  0  0
 10  9  2  0  0  0  0
 10  1  1  0  0  0  0
 14  8  1  0  0  0  0
 16  9  1  0  0  0  0
 17 10  1  0  0  0  0
 19 18  1  0  0  0  0
 19 21  1  0  0  0  0
 20 19  2  0  0  0  0
 21 24  1  0  0  0  0
 21 23  1  0  0  0  0
 22 21  1  0  0  0  0
M  RAD  3   2   2   3   3  18   2
M  END
