Coordinates from ORCA-job 4-MeOPhN2+~CF3COO-_B3LYPG-6-31G_dp-CH-Scan-d09-49-n800
 OpenBabel11261919493D

 24 23  0  0  0  0  0  0  0  0999 V2000
   -1.7890    0.0524   -0.1604 C   0  0  0  0  0  0  0  0  0  0  0  0
   -3.1598   -0.0698   -0.2140 N   0  0  0  0  0  0  0  0  0  0  0  0
   -4.2794   -0.1236   -0.2491 N   0  0  0  0  0  0  0  0  0  0  0  0
   -1.3268    1.3622    0.1145 C   0  0  0  0  0  0  0  0  0  0  0  0
    0.0781    1.3858    0.1491 C   0  0  0  0  0  0  0  0  0  0  0  0
    0.8903    0.2597   -0.0606 C   0  0  0  0  0  0  0  0  0  0  0  0
    2.2267    0.4634    0.0110 O   0  0  0  0  0  0  0  0  0  0  0  0
    3.1203   -0.6264   -0.1850 C   0  0  0  0  0  0  0  0  0  0  0  0
    0.3239   -1.0188   -0.3317 C   0  0  0  0  0  0  0  0  0  0  0  0
   -1.0449   -1.1366   -0.3850 C   0  0  0  0  0  0  0  0  0  0  0  0
   -3.3890    3.7460    0.5560 H   0  0  0  0  0  0  0  0  0  0  0  0
    0.6097    2.3164    0.3494 H   0  0  0  0  0  0  0  0  0  0  0  0
    4.1232   -0.2118   -0.0757 H   0  0  0  0  0  0  0  0  0  0  0  0
    3.0173   -1.0578   -1.1881 H   0  0  0  0  0  0  0  0  0  0  0  0
    2.9707   -1.4111    0.5664 H   0  0  0  0  0  0  0  0  0  0  0  0
    0.9475   -1.8886   -0.4945 H   0  0  0  0  0  0  0  0  0  0  0  0
   -1.5231   -2.0913   -0.5898 H   0  0  0  0  0  0  0  0  0  0  0  0
   -4.1237    4.3812    0.6453 O   0  0  0  0  0  0  0  0  0  0  0  0
   -5.2702    3.7243    0.4838 C   0  0  0  0  0  0  0  0  0  0  0  0
   -5.4106    2.5468    0.2660 O   0  0  0  0  0  0  0  0  0  0  0  0
   -6.4592    4.7004    0.6223 C   0  0  0  0  0  0  0  0  0  0  0  0
   -6.3507    5.7046   -0.2655 F   0  0  0  0  0  0  0  0  0  0  0  0
   -7.6117    4.0613    0.4073 F   0  0  0  0  0  0  0  0  0  0  0  0
   -6.4843    5.2301    1.8585 F   0  0  0  0  0  0  0  0  0  0  0  0
  1  4  2  0  0  0  0
  2  1  1  0  0  0  0
  3  2  1  0  0  0  0
  4  5  1  0  0  0  0
  5 12  1  0  0  0  0
  6  7  1  0  0  0  0
  6  5  2  0  0  0  0
  8 13  1  0  0  0  0
  8  7  1  0  0  0  0
  8 15  1  0  0  0  0
  9  6  1  0  0  0  0
 10  9  2  0  0  0  0
 10  1  1  0  0  0  0
 11 18  1  0  0  0  0
 14  8  1  0  0  0  0
 16  9  1  0  0  0  0
 17 10  1  0  0  0  0
 19 21  1  0  0  0  0
 19 18  1  0  0  0  0
 20 19  2  0  0  0  0
 21 24  1  0  0  0  0
 22 21  1  0  0  0  0
 23 21  1  0  0  0  0
M  RAD  3   2   2   3   3   4   2
M  END
