Coordinates from ORCA-job 4-MeOPhN2+~CF3COO-_B3LYPG-6-31G_dp-CH-Scan-d09-49-n800
 OpenBabel11261919493D

 24 23  0  0  0  0  0  0  0  0999 V2000
   -1.8507    0.0475   -0.1750 C   0  0  0  0  0  0  0  0  0  0  0  0
   -3.2179   -0.1009   -0.2390 N   0  0  0  0  0  0  0  0  0  0  0  0
   -4.3356   -0.1770   -0.2829 N   0  0  0  0  0  0  0  0  0  0  0  0
   -1.4104    1.3646    0.1013 C   0  0  0  0  0  0  0  0  0  0  0  0
   -0.0076    1.4148    0.1471 C   0  0  0  0  0  0  0  0  0  0  0  0
    0.8260    0.3024   -0.0544 C   0  0  0  0  0  0  0  0  0  0  0  0
    2.1572    0.5301    0.0277 O   0  0  0  0  0  0  0  0  0  0  0  0
    3.0720   -0.5443   -0.1580 C   0  0  0  0  0  0  0  0  0  0  0  0
    0.2837   -0.9855   -0.3280 C   0  0  0  0  0  0  0  0  0  0  0  0
   -1.0825   -1.1272   -0.3918 C   0  0  0  0  0  0  0  0  0  0  0  0
   -3.3073    3.5592    0.4957 H   0  0  0  0  0  0  0  0  0  0  0  0
    0.5050    2.3550    0.3503 H   0  0  0  0  0  0  0  0  0  0  0  0
    4.0661   -0.1116   -0.0392 H   0  0  0  0  0  0  0  0  0  0  0  0
    2.9863   -0.9783   -1.1614 H   0  0  0  0  0  0  0  0  0  0  0  0
    2.9287   -1.3302    0.5932 H   0  0  0  0  0  0  0  0  0  0  0  0
    0.9233   -1.8447   -0.4848 H   0  0  0  0  0  0  0  0  0  0  0  0
   -1.5420   -2.0904   -0.5990 H   0  0  0  0  0  0  0  0  0  0  0  0
   -4.0087    4.2327    0.5985 O   0  0  0  0  0  0  0  0  0  0  0  0
   -5.1910    3.6391    0.4748 C   0  0  0  0  0  0  0  0  0  0  0  0
   -5.4053    2.4691    0.2724 O   0  0  0  0  0  0  0  0  0  0  0  0
   -6.3216    4.6798    0.6333 C   0  0  0  0  0  0  0  0  0  0  0  0
   -6.1913    5.6597   -0.2790 F   0  0  0  0  0  0  0  0  0  0  0  0
   -7.5137    4.1000    0.4704 F   0  0  0  0  0  0  0  0  0  0  0  0
   -6.2772    5.2349    1.8580 F   0  0  0  0  0  0  0  0  0  0  0  0
  1  4  2  0  0  0  0
  2  1  1  0  0  0  0
  3  2  1  0  0  0  0
  4  5  1  0  0  0  0
  5 12  1  0  0  0  0
  6  7  1  0  0  0  0
  6  5  2  0  0  0  0
  8 13  1  0  0  0  0
  8  7  1  0  0  0  0
  8 15  1  0  0  0  0
  9  6  1  0  0  0  0
 10  9  2  0  0  0  0
 10  1  1  0  0  0  0
 11 18  1  0  0  0  0
 14  8  1  0  0  0  0
 16  9  1  0  0  0  0
 17 10  1  0  0  0  0
 19 18  1  0  0  0  0
 19 21  1  0  0  0  0
 20 19  2  0  0  0  0
 21 24  1  0  0  0  0
 22 21  1  0  0  0  0
 23 21  1  0  0  0  0
M  RAD  3   2   2   3   3   4   2
M  END
