Coordinates from ORCA-job 4-MeOPhN2+~CF3COO-_B3LYPG-6-31G_dp-CH-Scan-d09-49-n800
 OpenBabel11261919503D

 24 23  0  0  0  0  0  0  0  0999 V2000
   -1.3862    0.1747   -0.2648 C   0  0  0  0  0  0  0  0  0  0  0  0
   -2.7611    0.2557   -0.3369 N   0  0  0  0  0  0  0  0  0  0  0  0
   -3.8759    0.3801   -0.3797 N   0  0  0  0  0  0  0  0  0  0  0  0
   -0.7568    1.4254   -0.0609 C   0  0  0  0  0  0  0  0  0  0  0  0
    0.6395    1.2499   -0.0004 C   0  0  0  0  0  0  0  0  0  0  0  0
    1.2866    0.0114   -0.1261 C   0  0  0  0  0  0  0  0  0  0  0  0
    2.6398    0.0293   -0.0429 O   0  0  0  0  0  0  0  0  0  0  0  0
    3.3714   -1.1848   -0.1597 C   0  0  0  0  0  0  0  0  0  0  0  0
    0.5498   -1.1920   -0.3299 C   0  0  0  0  0  0  0  0  0  0  0  0
   -0.8211   -1.1216   -0.4028 C   0  0  0  0  0  0  0  0  0  0  0  0
   -4.0319    4.8986    0.5267 H   0  0  0  0  0  0  0  0  0  0  0  0
    1.2967    2.1071    0.1536 H   0  0  0  0  0  0  0  0  0  0  0  0
    4.4224   -0.9100   -0.0599 H   0  0  0  0  0  0  0  0  0  0  0  0
    3.2154   -1.6592   -1.1367 H   0  0  0  0  0  0  0  0  0  0  0  0
    3.1078   -1.8938    0.6347 H   0  0  0  0  0  0  0  0  0  0  0  0
    1.0491   -2.1478   -0.4274 H   0  0  0  0  0  0  0  0  0  0  0  0
   -1.4274   -2.0110   -0.5577 H   0  0  0  0  0  0  0  0  0  0  0  0
   -4.9293    5.2450    0.6716 O   0  0  0  0  0  0  0  0  0  0  0  0
   -5.7842    4.2238    0.5471 C   0  0  0  0  0  0  0  0  0  0  0  0
   -5.5032    3.0798    0.3012 O   0  0  0  0  0  0  0  0  0  0  0  0
   -7.2295    4.7193    0.7691 C   0  0  0  0  0  0  0  0  0  0  0  0
   -7.5372    5.6763   -0.1231 F   0  0  0  0  0  0  0  0  0  0  0  0
   -8.0898    3.7090    0.6307 F   0  0  0  0  0  0  0  0  0  0  0  0
   -7.3595    5.2334    2.0047 F   0  0  0  0  0  0  0  0  0  0  0  0
  1  4  2  0  0  0  0
  2  1  1  0  0  0  0
  3  2  1  0  0  0  0
  4  5  1  0  0  0  0
  5 12  1  0  0  0  0
  6  7  1  0  0  0  0
  6  5  2  0  0  0  0
  8 13  1  0  0  0  0
  8  7  1  0  0  0  0
  8 15  1  0  0  0  0
  9  6  1  0  0  0  0
 10  9  2  0  0  0  0
 10  1  1  0  0  0  0
 11 18  1  0  0  0  0
 14  8  1  0  0  0  0
 16  9  1  0  0  0  0
 17 10  1  0  0  0  0
 19 18  1  0  0  0  0
 19 21  1  0  0  0  0
 20 19  2  0  0  0  0
 21 24  1  0  0  0  0
 22 21  1  0  0  0  0
 23 21  1  0  0  0  0
M  RAD  3   2   2   3   3   4   2
M  END
