Coordinates from ORCA-job 4-MeOPhN2+~CF3COO-_B3LYPG-6-31G_dp-CH-Scan-d09-49-n800
 OpenBabel11261919493D

 24 23  0  0  0  0  0  0  0  0999 V2000
   -1.6868    0.0605   -0.1483 C   0  0  0  0  0  0  0  0  0  0  0  0
   -3.0621   -0.0179   -0.1891 N   0  0  0  0  0  0  0  0  0  0  0  0
   -4.1836   -0.0308   -0.2129 N   0  0  0  0  0  0  0  0  0  0  0  0
   -1.1898    1.3577    0.1243 C   0  0  0  0  0  0  0  0  0  0  0  0
    0.2169    1.3388    0.1463 C   0  0  0  0  0  0  0  0  0  0  0  0
    0.9947    0.1907   -0.0717 C   0  0  0  0  0  0  0  0  0  0  0  0
    2.3379    0.3556   -0.0118 O   0  0  0  0  0  0  0  0  0  0  0  0
    3.1974   -0.7589   -0.2182 C   0  0  0  0  0  0  0  0  0  0  0  0
    0.3904   -1.0717   -0.3394 C   0  0  0  0  0  0  0  0  0  0  0  0
   -0.9815   -1.1506   -0.3811 C   0  0  0  0  0  0  0  0  0  0  0  0
   -3.5392    4.0341    0.6400 H   0  0  0  0  0  0  0  0  0  0  0  0
    0.7778    2.2532    0.3430 H   0  0  0  0  0  0  0  0  0  0  0  0
    4.2131   -0.3736   -0.1195 H   0  0  0  0  0  0  0  0  0  0  0  0
    3.0715   -1.1865   -1.2205 H   0  0  0  0  0  0  0  0  0  0  0  0
    3.0337   -1.5401    0.5339 H   0  0  0  0  0  0  0  0  0  0  0  0
    0.9882   -1.9582   -0.5085 H   0  0  0  0  0  0  0  0  0  0  0  0
   -1.4889   -2.0911   -0.5828 H   0  0  0  0  0  0  0  0  0  0  0  0
   -4.3215    4.6091    0.7081 O   0  0  0  0  0  0  0  0  0  0  0  0
   -5.4065    3.8602    0.5045 C   0  0  0  0  0  0  0  0  0  0  0  0
   -5.4373    2.6781    0.2747 O   0  0  0  0  0  0  0  0  0  0  0  0
   -6.6750    4.7345    0.6128 C   0  0  0  0  0  0  0  0  0  0  0  0
   -6.6193    5.7557   -0.2599 F   0  0  0  0  0  0  0  0  0  0  0  0
   -7.7630    4.0065    0.3529 F   0  0  0  0  0  0  0  0  0  0  0  0
   -6.7818    5.2433    1.8534 F   0  0  0  0  0  0  0  0  0  0  0  0
  1  4  2  0  0  0  0
  2  1  1  0  0  0  0
  3  2  1  0  0  0  0
  4  5  1  0  0  0  0
  5 12  1  0  0  0  0
  6  7  1  0  0  0  0
  6  5  2  0  0  0  0
  8 13  1  0  0  0  0
  8  7  1  0  0  0  0
  8 15  1  0  0  0  0
  9  6  1  0  0  0  0
 10  9  2  0  0  0  0
 10  1  1  0  0  0  0
 11 18  1  0  0  0  0
 14  8  1  0  0  0  0
 16  9  1  0  0  0  0
 17 10  1  0  0  0  0
 19 21  1  0  0  0  0
 19 18  1  0  0  0  0
 20 19  2  0  0  0  0
 21 24  1  0  0  0  0
 22 21  1  0  0  0  0
 23 21  1  0  0  0  0
M  RAD  3   2   2   3   3   4   2
M  END
