Coordinates from ORCA-job 4-MeOPhN2+~CF3COO-_B3LYPG-6-31G_dp-CH-Scan-d09-49-n800
 OpenBabel11261919493D

 24 23  0  0  0  0  0  0  0  0999 V2000
   -1.5569    0.1098   -0.2763 C   0  0  0  0  0  0  0  0  0  0  0  0
   -2.9330    0.1009   -0.3627 N   0  0  0  0  0  0  0  0  0  0  0  0
   -4.0524    0.1504   -0.4257 N   0  0  0  0  0  0  0  0  0  0  0  0
   -1.0082    1.3945   -0.0488 C   0  0  0  0  0  0  0  0  0  0  0  0
    0.3953    1.3062    0.0259 C   0  0  0  0  0  0  0  0  0  0  0  0
    1.1206    0.1121   -0.1060 C   0  0  0  0  0  0  0  0  0  0  0  0
    2.4683    0.2132   -0.0032 O   0  0  0  0  0  0  0  0  0  0  0  0
    3.2753   -0.9526   -0.1169 C   0  0  0  0  0  0  0  0  0  0  0  0
    0.4632   -1.1316   -0.3355 C   0  0  0  0  0  0  0  0  0  0  0  0
   -0.9086   -1.1457   -0.4249 C   0  0  0  0  0  0  0  0  0  0  0  0
   -3.7362    4.4622    0.4792 H   0  0  0  0  0  0  0  0  0  0  0  0
    0.9955    2.2006    0.1986 H   0  0  0  0  0  0  0  0  0  0  0  0
    4.3054   -0.6149    0.0053 H   0  0  0  0  0  0  0  0  0  0  0  0
    3.1666   -1.4256   -1.1008 H   0  0  0  0  0  0  0  0  0  0  0  0
    3.0407   -1.6839    0.6660 H   0  0  0  0  0  0  0  0  0  0  0  0
    1.0221   -2.0531   -0.4401 H   0  0  0  0  0  0  0  0  0  0  0  0
   -1.4559   -2.0689   -0.6006 H   0  0  0  0  0  0  0  0  0  0  0  0
   -4.5776    4.9240    0.6373 O   0  0  0  0  0  0  0  0  0  0  0  0
   -5.5648    4.0312    0.5191 C   0  0  0  0  0  0  0  0  0  0  0  0
   -5.4494    2.8610    0.2617 O   0  0  0  0  0  0  0  0  0  0  0  0
   -6.9257    4.7187    0.7639 C   0  0  0  0  0  0  0  0  0  0  0  0
   -7.1147    5.7093   -0.1255 F   0  0  0  0  0  0  0  0  0  0  0  0
   -7.9182    3.8353    0.6403 F   0  0  0  0  0  0  0  0  0  0  0  0
   -6.9661    5.2455    2.0001 F   0  0  0  0  0  0  0  0  0  0  0  0
  1  4  2  0  0  0  0
  2  1  1  0  0  0  0
  3  2  1  0  0  0  0
  4  5  1  0  0  0  0
  5 12  1  0  0  0  0
  6  7  1  0  0  0  0
  6  5  2  0  0  0  0
  8  7  1  0  0  0  0
  8 13  1  0  0  0  0
  8 15  1  0  0  0  0
  9  6  1  0  0  0  0
 10  9  2  0  0  0  0
 10  1  1  0  0  0  0
 11 18  1  0  0  0  0
 14  8  1  0  0  0  0
 16  9  1  0  0  0  0
 17 10  1  0  0  0  0
 19 18  1  0  0  0  0
 19 21  1  0  0  0  0
 20 19  2  0  0  0  0
 21 24  1  0  0  0  0
 22 21  1  0  0  0  0
 23 21  1  0  0  0  0
M  RAD  3   2   2   3   3   4   2
M  END
