Coordinates from ORCA-job 4-MeOPhN2+~CF3COO-_B3LYPG-6-31G_dp-CH-Scan-d09-49-n800
 OpenBabel11261919493D

 24 23  0  0  0  0  0  0  0  0999 V2000
   -1.5415    0.1121   -0.2768 C   0  0  0  0  0  0  0  0  0  0  0  0
   -2.9177    0.1100   -0.3622 N   0  0  0  0  0  0  0  0  0  0  0  0
   -4.0369    0.1656   -0.4241 N   0  0  0  0  0  0  0  0  0  0  0  0
   -0.9869    1.3950   -0.0534 C   0  0  0  0  0  0  0  0  0  0  0  0
    0.4163    1.3003    0.0205 C   0  0  0  0  0  0  0  0  0  0  0  0
    1.1359    0.1026   -0.1089 C   0  0  0  0  0  0  0  0  0  0  0  0
    2.4843    0.1978   -0.0077 O   0  0  0  0  0  0  0  0  0  0  0  0
    3.2858   -0.9720   -0.1196 C   0  0  0  0  0  0  0  0  0  0  0  0
    0.4726   -1.1388   -0.3342 C   0  0  0  0  0  0  0  0  0  0  0  0
   -0.8993   -1.1469   -0.4224 C   0  0  0  0  0  0  0  0  0  0  0  0
   -3.7627    4.4998    0.4830 H   0  0  0  0  0  0  0  0  0  0  0  0
    1.0208    2.1925    0.1901 H   0  0  0  0  0  0  0  0  0  0  0  0
    4.3175   -0.6385    0.0002 H   0  0  0  0  0  0  0  0  0  0  0  0
    3.1736   -1.4470   -1.1022 H   0  0  0  0  0  0  0  0  0  0  0  0
    3.0490   -1.7002    0.6655 H   0  0  0  0  0  0  0  0  0  0  0  0
    1.0273   -2.0631   -0.4366 H   0  0  0  0  0  0  0  0  0  0  0  0
   -1.4510   -2.0680   -0.5948 H   0  0  0  0  0  0  0  0  0  0  0  0
   -4.6089    4.9532    0.6400 O   0  0  0  0  0  0  0  0  0  0  0  0
   -5.5867    4.0499    0.5217 C   0  0  0  0  0  0  0  0  0  0  0  0
   -5.4584    2.8809    0.2653 O   0  0  0  0  0  0  0  0  0  0  0  0
   -6.9548    4.7231    0.7658 C   0  0  0  0  0  0  0  0  0  0  0  0
   -7.1506    5.7170   -0.1183 F   0  0  0  0  0  0  0  0  0  0  0  0
   -7.9384    3.8311    0.6342 F   0  0  0  0  0  0  0  0  0  0  0  0
   -7.0037    5.2422    2.0050 F   0  0  0  0  0  0  0  0  0  0  0  0
  1  4  2  0  0  0  0
  2  1  1  0  0  0  0
  3  2  1  0  0  0  0
  4  5  1  0  0  0  0
  5 12  1  0  0  0  0
  6  7  1  0  0  0  0
  6  5  2  0  0  0  0
  8  7  1  0  0  0  0
  8 13  1  0  0  0  0
  8 15  1  0  0  0  0
  9  6  1  0  0  0  0
 10  9  2  0  0  0  0
 10  1  1  0  0  0  0
 11 18  1  0  0  0  0
 14  8  1  0  0  0  0
 16  9  1  0  0  0  0
 17 10  1  0  0  0  0
 19 18  1  0  0  0  0
 19 21  1  0  0  0  0
 20 19  2  0  0  0  0
 21 24  1  0  0  0  0
 22 21  1  0  0  0  0
 23 21  1  0  0  0  0
M  RAD  3   2   2   3   3   4   2
M  END
