Coordinates from ORCA-job 4-MeOPhN2+~CF3COO-_B3LYPG-6-31G_dp-CH-Scan-d09-49-n800
 OpenBabel11261919493D

 24 23  0  0  0  0  0  0  0  0999 V2000
   -2.1525    0.0437   -0.2198 C   0  0  0  0  0  0  0  0  0  0  0  0
   -3.4974   -0.2233   -0.3218 N   0  0  0  0  0  0  0  0  0  0  0  0
   -4.6031   -0.3806   -0.3914 N   0  0  0  0  0  0  0  0  0  0  0  0
   -1.8026    1.3863    0.0626 C   0  0  0  0  0  0  0  0  0  0  0  0
   -0.4185    1.5570    0.1505 C   0  0  0  0  0  0  0  0  0  0  0  0
    0.5071    0.5116   -0.0219 C   0  0  0  0  0  0  0  0  0  0  0  0
    1.8073    0.8464    0.0987 O   0  0  0  0  0  0  0  0  0  0  0  0
    2.8140   -0.1518   -0.0513 C   0  0  0  0  0  0  0  0  0  0  0  0
    0.0712   -0.8106   -0.3053 C   0  0  0  0  0  0  0  0  0  0  0  0
   -1.2791   -1.0562   -0.4075 C   0  0  0  0  0  0  0  0  0  0  0  0
   -2.8889    2.6767    0.2822 H   0  0  0  0  0  0  0  0  0  0  0  0
    0.0009    2.5379    0.3653 H   0  0  0  0  0  0  0  0  0  0  0  0
    3.7637    0.3624    0.0972 H   0  0  0  0  0  0  0  0  0  0  0  0
    2.7944   -0.5925   -1.0546 H   0  0  0  0  0  0  0  0  0  0  0  0
    2.7085   -0.9426    0.7005 H   0  0  0  0  0  0  0  0  0  0  0  0
    0.7767   -1.6201   -0.4412 H   0  0  0  0  0  0  0  0  0  0  0  0
   -1.6554   -2.0520   -0.6235 H   0  0  0  0  0  0  0  0  0  0  0  0
   -3.4981    3.5436    0.4348 O   0  0  0  0  0  0  0  0  0  0  0  0
   -4.7670    3.2499    0.4213 C   0  0  0  0  0  0  0  0  0  0  0  0
   -5.2959    2.1642    0.2550 O   0  0  0  0  0  0  0  0  0  0  0  0
   -5.6292    4.5153    0.6485 C   0  0  0  0  0  0  0  0  0  0  0  0
   -5.4284    5.4087   -0.3420 F   0  0  0  0  0  0  0  0  0  0  0  0
   -6.9338    4.2135    0.6794 F   0  0  0  0  0  0  0  0  0  0  0  0
   -5.3084    5.1112    1.8144 F   0  0  0  0  0  0  0  0  0  0  0  0
  1  4  2  0  0  0  0
  2  1  1  0  0  0  0
  3  2  1  0  0  0  0
  4  5  1  0  0  0  0
  5 12  1  0  0  0  0
  6  7  1  0  0  0  0
  6  5  2  0  0  0  0
  8 13  1  0  0  0  0
  8  7  1  0  0  0  0
  8 15  1  0  0  0  0
  9  6  1  0  0  0  0
 10  9  2  0  0  0  0
 10  1  1  0  0  0  0
 11 18  1  0  0  0  0
 14  8  1  0  0  0  0
 16  9  1  0  0  0  0
 17 10  1  0  0  0  0
 19 18  1  0  0  0  0
 19 21  1  0  0  0  0
 20 19  2  0  0  0  0
 21 23  1  0  0  0  0
 21 24  1  0  0  0  0
 22 21  1  0  0  0  0
M  RAD  3   2   2   3   3   4   2
M  END
