Coordinates from ORCA-job 4-MeOPhN2+~CF3COO-_B3LYPG-6-31G_dp-CH-Scan-d09-49-n800
 OpenBabel11261919493D

 24 23  0  0  0  0  0  0  0  0999 V2000
   -1.6965    0.0593   -0.1494 C   0  0  0  0  0  0  0  0  0  0  0  0
   -3.0714   -0.0234   -0.1915 N   0  0  0  0  0  0  0  0  0  0  0  0
   -4.1928   -0.0400   -0.2159 N   0  0  0  0  0  0  0  0  0  0  0  0
   -1.2031    1.3579    0.1236 C   0  0  0  0  0  0  0  0  0  0  0  0
    0.2036    1.3431    0.1467 C   0  0  0  0  0  0  0  0  0  0  0  0
    0.9849    0.1971   -0.0706 C   0  0  0  0  0  0  0  0  0  0  0  0
    2.3275    0.3660   -0.0095 O   0  0  0  0  0  0  0  0  0  0  0  0
    3.1904   -0.7462   -0.2151 C   0  0  0  0  0  0  0  0  0  0  0  0
    0.3843   -1.0669   -0.3388 C   0  0  0  0  0  0  0  0  0  0  0  0
   -0.9873   -1.1497   -0.3816 C   0  0  0  0  0  0  0  0  0  0  0  0
   -3.5247    4.0061    0.6320 H   0  0  0  0  0  0  0  0  0  0  0  0
    0.7617    2.2591    0.3438 H   0  0  0  0  0  0  0  0  0  0  0  0
    4.2049   -0.3579   -0.1152 H   0  0  0  0  0  0  0  0  0  0  0  0
    3.0668   -1.1741   -1.2175 H   0  0  0  0  0  0  0  0  0  0  0  0
    3.0282   -1.5278    0.5369 H   0  0  0  0  0  0  0  0  0  0  0  0
    0.9848   -1.9517   -0.5075 H   0  0  0  0  0  0  0  0  0  0  0  0
   -1.4918   -2.0915   -0.5838 H   0  0  0  0  0  0  0  0  0  0  0  0
   -4.3025    4.5872    0.7022 O   0  0  0  0  0  0  0  0  0  0  0  0
   -5.3941    3.8472    0.5024 C   0  0  0  0  0  0  0  0  0  0  0  0
   -5.4355    2.6652    0.2735 O   0  0  0  0  0  0  0  0  0  0  0  0
   -6.6549    4.7320    0.6138 C   0  0  0  0  0  0  0  0  0  0  0  0
   -6.5937    5.7516   -0.2605 F   0  0  0  0  0  0  0  0  0  0  0  0
   -7.7499    4.0128    0.3585 F   0  0  0  0  0  0  0  0  0  0  0  0
   -6.7535    5.2434    1.8540 F   0  0  0  0  0  0  0  0  0  0  0  0
  1  4  2  0  0  0  0
  2  1  1  0  0  0  0
  3  2  1  0  0  0  0
  4  5  1  0  0  0  0
  5 12  1  0  0  0  0
  6  7  1  0  0  0  0
  6  5  2  0  0  0  0
  8 13  1  0  0  0  0
  8  7  1  0  0  0  0
  8 15  1  0  0  0  0
  9  6  1  0  0  0  0
 10  9  2  0  0  0  0
 10  1  1  0  0  0  0
 11 18  1  0  0  0  0
 14  8  1  0  0  0  0
 16  9  1  0  0  0  0
 17 10  1  0  0  0  0
 19 21  1  0  0  0  0
 19 18  1  0  0  0  0
 20 19  2  0  0  0  0
 21 24  1  0  0  0  0
 22 21  1  0  0  0  0
 23 21  1  0  0  0  0
M  RAD  3   2   2   3   3   4   2
M  END
