Coordinates from ORCA-job 4-MeOPhN2+~CF3COO-_B3LYPG-6-31G_dp-CH-Scan-d09-49-n800
 OpenBabel11261919493D

 24 23  0  0  0  0  0  0  0  0999 V2000
   -1.6502    0.0674   -0.1449 C   0  0  0  0  0  0  0  0  0  0  0  0
   -3.0267    0.0063   -0.1820 N   0  0  0  0  0  0  0  0  0  0  0  0
   -4.1486    0.0085   -0.1985 N   0  0  0  0  0  0  0  0  0  0  0  0
   -1.1388    1.3592    0.1263 C   0  0  0  0  0  0  0  0  0  0  0  0
    0.2682    1.3232    0.1443 C   0  0  0  0  0  0  0  0  0  0  0  0
    1.0319    0.1662   -0.0757 C   0  0  0  0  0  0  0  0  0  0  0  0
    2.3774    0.3154   -0.0198 O   0  0  0  0  0  0  0  0  0  0  0  0
    3.2230   -0.8091   -0.2295 C   0  0  0  0  0  0  0  0  0  0  0  0
    0.4123   -1.0893   -0.3416 C   0  0  0  0  0  0  0  0  0  0  0  0
   -0.9605   -1.1524   -0.3796 C   0  0  0  0  0  0  0  0  0  0  0  0
   -3.5936    4.1463    0.6693 H   0  0  0  0  0  0  0  0  0  0  0  0
    0.8406    2.2310    0.3392 H   0  0  0  0  0  0  0  0  0  0  0  0
    4.2435   -0.4357   -0.1347 H   0  0  0  0  0  0  0  0  0  0  0  0
    3.0883   -1.2353   -1.2312 H   0  0  0  0  0  0  0  0  0  0  0  0
    3.0532   -1.5884    0.5233 H   0  0  0  0  0  0  0  0  0  0  0  0
    0.9995   -1.9827   -0.5123 H   0  0  0  0  0  0  0  0  0  0  0  0
   -1.4794   -2.0868   -0.5798 H   0  0  0  0  0  0  0  0  0  0  0  0
   -4.3946    4.6957    0.7288 O   0  0  0  0  0  0  0  0  0  0  0  0
   -5.4519    3.9102    0.5122 C   0  0  0  0  0  0  0  0  0  0  0  0
   -5.4384    2.7285    0.2804 O   0  0  0  0  0  0  0  0  0  0  0  0
   -6.7508    4.7398    0.6093 C   0  0  0  0  0  0  0  0  0  0  0  0
   -6.7200    5.7675   -0.2569 F   0  0  0  0  0  0  0  0  0  0  0  0
   -7.8094    3.9759    0.3322 F   0  0  0  0  0  0  0  0  0  0  0  0
   -6.8897    5.2372    1.8514 F   0  0  0  0  0  0  0  0  0  0  0  0
  1  4  2  0  0  0  0
  2  1  1  0  0  0  0
  3  2  1  0  0  0  0
  4  5  1  0  0  0  0
  5 12  1  0  0  0  0
  6  7  1  0  0  0  0
  6  5  2  0  0  0  0
  8 13  1  0  0  0  0
  8  7  1  0  0  0  0
  8 15  1  0  0  0  0
  9  6  1  0  0  0  0
 10  9  2  0  0  0  0
 10  1  1  0  0  0  0
 11 18  1  0  0  0  0
 14  8  1  0  0  0  0
 16  9  1  0  0  0  0
 17 10  1  0  0  0  0
 19 21  1  0  0  0  0
 19 18  1  0  0  0  0
 20 19  2  0  0  0  0
 21 24  1  0  0  0  0
 22 21  1  0  0  0  0
 23 21  1  0  0  0  0
M  RAD  3   2   2   3   3   4   2
M  END
