Coordinates from ORCA-job 4-MeOPhN2+~CF3COO-_B3LYPG-6-31G_dp-CH-Scan-d09-49-n800
 OpenBabel11261919493D

 24 23  0  0  0  0  0  0  0  0999 V2000
   -1.6654    0.0639   -0.1460 C   0  0  0  0  0  0  0  0  0  0  0  0
   -3.0414   -0.0047   -0.1843 N   0  0  0  0  0  0  0  0  0  0  0  0
   -4.1632   -0.0083   -0.2049 N   0  0  0  0  0  0  0  0  0  0  0  0
   -1.1603    1.3582    0.1257 C   0  0  0  0  0  0  0  0  0  0  0  0
    0.2466    1.3294    0.1452 C   0  0  0  0  0  0  0  0  0  0  0  0
    1.0164    0.1763   -0.0741 C   0  0  0  0  0  0  0  0  0  0  0  0
    2.3610    0.3323   -0.0167 O   0  0  0  0  0  0  0  0  0  0  0  0
    3.2126   -0.7878   -0.2251 C   0  0  0  0  0  0  0  0  0  0  0  0
    0.4034   -1.0822   -0.3406 C   0  0  0  0  0  0  0  0  0  0  0  0
   -0.9690   -1.1522   -0.3800 C   0  0  0  0  0  0  0  0  0  0  0  0
   -3.5709    4.0988    0.6578 H   0  0  0  0  0  0  0  0  0  0  0  0
    0.8141    2.2401    0.3408 H   0  0  0  0  0  0  0  0  0  0  0  0
    4.2311   -0.4093   -0.1288 H   0  0  0  0  0  0  0  0  0  0  0  0
    3.0815   -1.2147   -1.2270 H   0  0  0  0  0  0  0  0  0  0  0  0
    3.0456   -1.5680    0.5275 H   0  0  0  0  0  0  0  0  0  0  0  0
    0.9952   -1.9726   -0.5108 H   0  0  0  0  0  0  0  0  0  0  0  0
   -1.4830   -2.0892   -0.5807 H   0  0  0  0  0  0  0  0  0  0  0  0
   -4.3641    4.6591    0.7209 O   0  0  0  0  0  0  0  0  0  0  0  0
   -5.4334    3.8894    0.5090 C   0  0  0  0  0  0  0  0  0  0  0  0
   -5.4387    2.7075    0.2776 O   0  0  0  0  0  0  0  0  0  0  0  0
   -6.7194    4.7384    0.6105 C   0  0  0  0  0  0  0  0  0  0  0  0
   -6.6773    5.7636   -0.2581 F   0  0  0  0  0  0  0  0  0  0  0  0
   -7.7907    3.9899    0.3401 F   0  0  0  0  0  0  0  0  0  0  0  0
   -6.8452    5.2405    1.8521 F   0  0  0  0  0  0  0  0  0  0  0  0
  1  4  2  0  0  0  0
  2  1  1  0  0  0  0
  3  2  1  0  0  0  0
  4  5  1  0  0  0  0
  5 12  1  0  0  0  0
  6  7  1  0  0  0  0
  6  5  2  0  0  0  0
  8 13  1  0  0  0  0
  8  7  1  0  0  0  0
  8 15  1  0  0  0  0
  9  6  1  0  0  0  0
 10  9  2  0  0  0  0
 10  1  1  0  0  0  0
 11 18  1  0  0  0  0
 14  8  1  0  0  0  0
 16  9  1  0  0  0  0
 17 10  1  0  0  0  0
 19 21  1  0  0  0  0
 19 18  1  0  0  0  0
 20 19  2  0  0  0  0
 21 24  1  0  0  0  0
 22 21  1  0  0  0  0
 23 21  1  0  0  0  0
M  RAD  3   2   2   3   3   4   2
M  END
