Coordinates from ORCA-job 4-MeOPhN2+~CF3COO-_B3LYPG-6-31G_dp-CH-Scan-d09-49-n800
 OpenBabel11261919493D

 24 23  0  0  0  0  0  0  0  0999 V2000
   -1.9512    0.0412   -0.2025 C   0  0  0  0  0  0  0  0  0  0  0  0
   -3.3115   -0.1489   -0.2828 N   0  0  0  0  0  0  0  0  0  0  0  0
   -4.4251   -0.2611   -0.3391 N   0  0  0  0  0  0  0  0  0  0  0  0
   -1.5458    1.3682    0.0798 C   0  0  0  0  0  0  0  0  0  0  0  0
   -0.1478    1.4608    0.1456 C   0  0  0  0  0  0  0  0  0  0  0  0
    0.7196    0.3716   -0.0441 C   0  0  0  0  0  0  0  0  0  0  0  0
    2.0410    0.6368    0.0586 O   0  0  0  0  0  0  0  0  0  0  0  0
    2.9895   -0.4118   -0.1095 C   0  0  0  0  0  0  0  0  0  0  0  0
    0.2163   -0.9294   -0.3266 C   0  0  0  0  0  0  0  0  0  0  0  0
   -1.1447   -1.1086   -0.4095 C   0  0  0  0  0  0  0  0  0  0  0  0
   -3.1790    3.2677    0.4122 H   0  0  0  0  0  0  0  0  0  0  0  0
    0.3333    2.4151    0.3567 H   0  0  0  0  0  0  0  0  0  0  0  0
    3.9681    0.0489    0.0283 H   0  0  0  0  0  0  0  0  0  0  0  0
    2.9347   -0.8471   -1.1144 H   0  0  0  0  0  0  0  0  0  0  0  0
    2.8534   -1.2012    0.6393 H   0  0  0  0  0  0  0  0  0  0  0  0
    0.8808   -1.7708   -0.4756 H   0  0  0  0  0  0  0  0  0  0  0  0
   -1.5738   -2.0839   -0.6240 H   0  0  0  0  0  0  0  0  0  0  0  0
   -3.8301    3.9966    0.5398 O   0  0  0  0  0  0  0  0  0  0  0  0
   -5.0566    3.5058    0.4603 C   0  0  0  0  0  0  0  0  0  0  0  0
   -5.3829    2.3585    0.2641 O   0  0  0  0  0  0  0  0  0  0  0  0
   -6.0924    4.6366    0.6510 C   0  0  0  0  0  0  0  0  0  0  0  0
   -5.9659    5.5552   -0.3252 F   0  0  0  0  0  0  0  0  0  0  0  0
   -7.3346    4.1458    0.6142 F   0  0  0  0  0  0  0  0  0  0  0  0
   -5.9099    5.2525    1.8334 F   0  0  0  0  0  0  0  0  0  0  0  0
  1  4  2  0  0  0  0
  2  1  1  0  0  0  0
  3  2  1  0  0  0  0
  4  5  1  0  0  0  0
  5 12  1  0  0  0  0
  6  7  1  0  0  0  0
  6  5  2  0  0  0  0
  8 13  1  0  0  0  0
  8  7  1  0  0  0  0
  8 15  1  0  0  0  0
  9  6  1  0  0  0  0
 10  9  2  0  0  0  0
 10  1  1  0  0  0  0
 11 18  1  0  0  0  0
 14  8  1  0  0  0  0
 16  9  1  0  0  0  0
 17 10  1  0  0  0  0
 19 18  1  0  0  0  0
 19 21  1  0  0  0  0
 20 19  2  0  0  0  0
 21 24  1  0  0  0  0
 22 21  1  0  0  0  0
 23 21  1  0  0  0  0
M  RAD  3   2   2   3   3   4   2
M  END
