Coordinates from ORCA-job 4-MeOPhN2+~CF3COO-_B3LYPG-6-31G_dp-CH-Scan-d09-49-n800
 OpenBabel11261919493D

 24 23  0  0  0  0  0  0  0  0999 V2000
   -1.4859    0.1265   -0.2714 C   0  0  0  0  0  0  0  0  0  0  0  0
   -2.8625    0.1510   -0.3497 N   0  0  0  0  0  0  0  0  0  0  0  0
   -3.9807    0.2301   -0.4059 N   0  0  0  0  0  0  0  0  0  0  0  0
   -0.9072    1.4007   -0.0615 C   0  0  0  0  0  0  0  0  0  0  0  0
    0.4946    1.2809    0.0053 C   0  0  0  0  0  0  0  0  0  0  0  0
    1.1912    0.0692   -0.1190 C   0  0  0  0  0  0  0  0  0  0  0  0
    2.5419    0.1405   -0.0273 O   0  0  0  0  0  0  0  0  0  0  0  0
    3.3214   -1.0442   -0.1373 C   0  0  0  0  0  0  0  0  0  0  0  0
    0.5039   -1.1618   -0.3299 C   0  0  0  0  0  0  0  0  0  0  0  0
   -0.8684   -1.1456   -0.4101 C   0  0  0  0  0  0  0  0  0  0  0  0
   -3.8568    4.6321    0.5258 H   0  0  0  0  0  0  0  0  0  0  0  0
    1.1164    2.1631    0.1644 H   0  0  0  0  0  0  0  0  0  0  0  0
    4.3599   -0.7285   -0.0282 H   0  0  0  0  0  0  0  0  0  0  0  0
    3.1926   -1.5241   -1.1155 H   0  0  0  0  0  0  0  0  0  0  0  0
    3.0782   -1.7627    0.6549 H   0  0  0  0  0  0  0  0  0  0  0  0
    1.0412   -2.0968   -0.4275 H   0  0  0  0  0  0  0  0  0  0  0  0
   -1.4380   -2.0578   -0.5713 H   0  0  0  0  0  0  0  0  0  0  0  0
   -4.7213    5.0537    0.6713 O   0  0  0  0  0  0  0  0  0  0  0  0
   -5.6624    4.1138    0.5358 C   0  0  0  0  0  0  0  0  0  0  0  0
   -5.4845    2.9514    0.2794 O   0  0  0  0  0  0  0  0  0  0  0  0
   -7.0587    4.7337    0.7602 C   0  0  0  0  0  0  0  0  0  0  0  0
   -7.2755    5.7272   -0.1190 F   0  0  0  0  0  0  0  0  0  0  0  0
   -8.0058    3.8068    0.6040 F   0  0  0  0  0  0  0  0  0  0  0  0
   -7.1481    5.2396    2.0027 F   0  0  0  0  0  0  0  0  0  0  0  0
  1  4  2  0  0  0  0
  2  1  1  0  0  0  0
  3  2  1  0  0  0  0
  4  5  1  0  0  0  0
  5 12  1  0  0  0  0
  6  7  1  0  0  0  0
  6  5  2  0  0  0  0
  8 13  1  0  0  0  0
  8  7  1  0  0  0  0
  8 15  1  0  0  0  0
  9  6  1  0  0  0  0
 10  9  2  0  0  0  0
 10  1  1  0  0  0  0
 11 18  1  0  0  0  0
 14  8  1  0  0  0  0
 16  9  1  0  0  0  0
 17 10  1  0  0  0  0
 19 18  1  0  0  0  0
 19 21  1  0  0  0  0
 20 19  2  0  0  0  0
 21 24  1  0  0  0  0
 22 21  1  0  0  0  0
 23 21  1  0  0  0  0
M  RAD  3   2   2   3   3   4   2
M  END
