Coordinates from ORCA-job 4-MeOPhN2+~CF3COO-_B3LYPG-6-31G_dp-CH-Scan-d09-49-n800
 OpenBabel11261919493D

 24 23  0  0  0  0  0  0  0  0999 V2000
   -2.1017    0.0380   -0.2085 C   0  0  0  0  0  0  0  0  0  0  0  0
   -3.4500   -0.2141   -0.3033 N   0  0  0  0  0  0  0  0  0  0  0  0
   -4.5568   -0.3694   -0.3695 N   0  0  0  0  0  0  0  0  0  0  0  0
   -1.7427    1.3776    0.0801 C   0  0  0  0  0  0  0  0  0  0  0  0
   -0.3535    1.5289    0.1591 C   0  0  0  0  0  0  0  0  0  0  0  0
    0.5595    0.4753   -0.0253 C   0  0  0  0  0  0  0  0  0  0  0  0
    1.8655    0.7949    0.0891 O   0  0  0  0  0  0  0  0  0  0  0  0
    2.8591   -0.2136   -0.0725 C   0  0  0  0  0  0  0  0  0  0  0  0
    0.1093   -0.8419   -0.3140 C   0  0  0  0  0  0  0  0  0  0  0  0
   -1.2435   -1.0731   -0.4090 C   0  0  0  0  0  0  0  0  0  0  0  0
   -2.9760    2.8351    0.3359 H   0  0  0  0  0  0  0  0  0  0  0  0
    0.0823    2.5024    0.3769 H   0  0  0  0  0  0  0  0  0  0  0  0
    3.8159    0.2881    0.0737 H   0  0  0  0  0  0  0  0  0  0  0  0
    2.8296   -0.6485   -1.0783 H   0  0  0  0  0  0  0  0  0  0  0  0
    2.7492   -1.0083    0.6747 H   0  0  0  0  0  0  0  0  0  0  0  0
    0.8062   -1.6572   -0.4591 H   0  0  0  0  0  0  0  0  0  0  0  0
   -1.6319   -2.0637   -0.6287 H   0  0  0  0  0  0  0  0  0  0  0  0
   -3.5775    3.6521    0.4805 O   0  0  0  0  0  0  0  0  0  0  0  0
   -4.8431    3.3141    0.4296 C   0  0  0  0  0  0  0  0  0  0  0  0
   -5.3228    2.2141    0.2408 O   0  0  0  0  0  0  0  0  0  0  0  0
   -5.7438    4.5533    0.6421 C   0  0  0  0  0  0  0  0  0  0  0  0
   -5.5501    5.4504   -0.3452 F   0  0  0  0  0  0  0  0  0  0  0  0
   -7.0366    4.2082    0.6482 F   0  0  0  0  0  0  0  0  0  0  0  0
   -5.4610    5.1559    1.8132 F   0  0  0  0  0  0  0  0  0  0  0  0
  1  4  2  0  0  0  0
  2  1  1  0  0  0  0
  3  2  1  0  0  0  0
  4  5  1  0  0  0  0
  5 12  1  0  0  0  0
  6  7  1  0  0  0  0
  6  5  2  0  0  0  0
  8 13  1  0  0  0  0
  8  7  1  0  0  0  0
  8 15  1  0  0  0  0
  9  6  1  0  0  0  0
 10  9  2  0  0  0  0
 10  1  1  0  0  0  0
 11 18  1  0  0  0  0
 14  8  1  0  0  0  0
 16  9  1  0  0  0  0
 17 10  1  0  0  0  0
 19 18  1  0  0  0  0
 19 21  1  0  0  0  0
 20 19  2  0  0  0  0
 21 23  1  0  0  0  0
 21 24  1  0  0  0  0
 22 21  1  0  0  0  0
M  RAD  3   2   2   3   3   4   2
M  END
