Coordinates from ORCA-job 4-MeOPhN2+~CF3COO-_B3LYPG-6-31G_dp-CH-Scan-d09-49-n800
 OpenBabel11261919493D

 24 23  0  0  0  0  0  0  0  0999 V2000
   -2.2922    0.4757    0.3711 C   0  0  0  0  0  0  0  0  0  0  0  0
   -3.6904    0.3023    0.4538 N   0  0  0  0  0  0  0  0  0  0  0  0
   -4.5522   -0.4213    0.3596 N   0  0  0  0  0  0  0  0  0  0  0  0
   -1.6510    1.6004    0.8995 C   0  0  0  0  0  0  0  0  0  0  0  0
   -0.2749    1.6800    0.8165 C   0  0  0  0  0  0  0  0  0  0  0  0
    0.4647    0.6519    0.1989 C   0  0  0  0  0  0  0  0  0  0  0  0
    1.7986    0.8357    0.1632 O   0  0  0  0  0  0  0  0  0  0  0  0
    2.6213   -0.1477   -0.4627 C   0  0  0  0  0  0  0  0  0  0  0  0
   -0.1965   -0.4733   -0.3301 C   0  0  0  0  0  0  0  0  0  0  0  0
   -1.5775   -0.5650   -0.2393 C   0  0  0  0  0  0  0  0  0  0  0  0
   -2.3100    2.4229    1.3848 H   0  0  0  0  0  0  0  0  0  0  0  0
    0.2603    2.5343    1.2148 H   0  0  0  0  0  0  0  0  0  0  0  0
    3.6419    0.2263   -0.3805 H   0  0  0  0  0  0  0  0  0  0  0  0
    2.3613   -0.2687   -1.5204 H   0  0  0  0  0  0  0  0  0  0  0  0
    2.5462   -1.1137    0.0498 H   0  0  0  0  0  0  0  0  0  0  0  0
    0.3542   -1.2726   -0.8095 H   0  0  0  0  0  0  0  0  0  0  0  0
   -2.1027   -1.4236   -0.6428 H   0  0  0  0  0  0  0  0  0  0  0  0
   -4.3686    2.2298    1.0620 O   0  0  0  0  0  0  0  0  0  0  0  0
   -4.6109    2.7787   -0.0732 C   0  0  0  0  0  0  0  0  0  0  0  0
   -4.3158    2.3816   -1.1974 O   0  0  0  0  0  0  0  0  0  0  0  0
   -5.3429    4.1426    0.0834 C   0  0  0  0  0  0  0  0  0  0  0  0
   -5.7450    4.6354   -1.0970 F   0  0  0  0  0  0  0  0  0  0  0  0
   -6.4255    4.0380    0.8796 F   0  0  0  0  0  0  0  0  0  0  0  0
   -4.5073    5.0487    0.6460 F   0  0  0  0  0  0  0  0  0  0  0  0
  1  2  1  0  0  0  0
  1  4  2  0  0  0  0
  3  2  2  0  0  0  0
  4 11  1  0  0  0  0
  5  4  1  0  0  0  0
  5 12  1  0  0  0  0
  6  5  2  0  0  0  0
  7  6  1  0  0  0  0
  8 13  1  0  0  0  0
  8 15  1  0  0  0  0
  8  7  1  0  0  0  0
  9 10  2  0  0  0  0
  9  6  1  0  0  0  0
 10  1  1  0  0  0  0
 14  8  1  0  0  0  0
 16  9  1  0  0  0  0
 17 10  1  0  0  0  0
 19 21  1  0  0  0  0
 19 18  1  0  0  0  0
 20 19  2  0  0  0  0
 21 24  1  0  0  0  0
 21 23  1  0  0  0  0
 22 21  1  0  0  0  0
M  RAD  2   3   2  18   2
M  END
