Coordinates from ORCA-job 4-MeOPhN2+~CF3COO-_B3LYPG-6-31G_dp-CH-Scan-d09-49-n800
 OpenBabel11261919493D

 24 23  0  0  0  0  0  0  0  0999 V2000
   -1.5799    0.0885   -0.1406 C   0  0  0  0  0  0  0  0  0  0  0  0
   -2.9580    0.0629   -0.1720 N   0  0  0  0  0  0  0  0  0  0  0  0
   -4.0796    0.0961   -0.1866 N   0  0  0  0  0  0  0  0  0  0  0  0
   -1.0372    1.3677    0.1293 C   0  0  0  0  0  0  0  0  0  0  0  0
    0.3691    1.2951    0.1422 C   0  0  0  0  0  0  0  0  0  0  0  0
    1.1027    0.1198   -0.0815 C   0  0  0  0  0  0  0  0  0  0  0  0
    2.4522    0.2351   -0.0312 O   0  0  0  0  0  0  0  0  0  0  0  0
    3.2681   -0.9097   -0.2470 C   0  0  0  0  0  0  0  0  0  0  0  0
    0.4511   -1.1201   -0.3455 C   0  0  0  0  0  0  0  0  0  0  0  0
   -0.9229   -1.1488   -0.3784 C   0  0  0  0  0  0  0  0  0  0  0  0
   -3.7009    4.3761    0.7029 H   0  0  0  0  0  0  0  0  0  0  0  0
    0.9652    2.1880    0.3356 H   0  0  0  0  0  0  0  0  0  0  0  0
    4.2983   -0.5621   -0.1579 H   0  0  0  0  0  0  0  0  0  0  0  0
    3.1171   -1.3314   -1.2484 H   0  0  0  0  0  0  0  0  0  0  0  0
    3.0835   -1.6856    0.5058 H   0  0  0  0  0  0  0  0  0  0  0  0
    1.0153   -2.0277   -0.5187 H   0  0  0  0  0  0  0  0  0  0  0  0
   -1.4660   -2.0699   -0.5765 H   0  0  0  0  0  0  0  0  0  0  0  0
   -4.5393    4.8668    0.7560 O   0  0  0  0  0  0  0  0  0  0  0  0
   -5.5348    4.0062    0.5250 C   0  0  0  0  0  0  0  0  0  0  0  0
   -5.4300    2.8299    0.2916 O   0  0  0  0  0  0  0  0  0  0  0  0
   -6.8922    4.7375    0.6095 C   0  0  0  0  0  0  0  0  0  0  0  0
   -6.9264    5.7704   -0.2500 F   0  0  0  0  0  0  0  0  0  0  0  0
   -7.8872    3.8992    0.3141 F   0  0  0  0  0  0  0  0  0  0  0  0
   -7.0827    5.2146    1.8527 F   0  0  0  0  0  0  0  0  0  0  0  0
  1  4  2  0  0  0  0
  2  1  1  0  0  0  0
  3  2  1  0  0  0  0
  4  5  1  0  0  0  0
  5 12  1  0  0  0  0
  6  7  1  0  0  0  0
  6  5  2  0  0  0  0
  8 13  1  0  0  0  0
  8  7  1  0  0  0  0
  8 15  1  0  0  0  0
  9  6  1  0  0  0  0
 10  9  2  0  0  0  0
 10  1  1  0  0  0  0
 11 18  1  0  0  0  0
 14  8  1  0  0  0  0
 16  9  1  0  0  0  0
 17 10  1  0  0  0  0
 19 21  1  0  0  0  0
 19 18  1  0  0  0  0
 20 19  2  0  0  0  0
 21 24  1  0  0  0  0
 22 21  1  0  0  0  0
 23 21  1  0  0  0  0
M  RAD  3   2   2   3   3   4   2
M  END
