Coordinates from ORCA-job 4-MeOPhN2+~CF3COO-_B3LYPG-6-31G_dp-CH-Scan-d09-49-n800
 OpenBabel11261919493D

 24 23  0  0  0  0  0  0  0  0999 V2000
   -1.9855    0.0405   -0.2034 C   0  0  0  0  0  0  0  0  0  0  0  0
   -3.3432   -0.1640   -0.2865 N   0  0  0  0  0  0  0  0  0  0  0  0
   -4.4552   -0.2879   -0.3452 N   0  0  0  0  0  0  0  0  0  0  0  0
   -1.5908    1.3705    0.0811 C   0  0  0  0  0  0  0  0  0  0  0  0
   -0.1944    1.4764    0.1495 C   0  0  0  0  0  0  0  0  0  0  0  0
    0.6833    0.3953   -0.0398 C   0  0  0  0  0  0  0  0  0  0  0  0
    2.0016    0.6728    0.0656 O   0  0  0  0  0  0  0  0  0  0  0  0
    2.9603   -0.3669   -0.1015 C   0  0  0  0  0  0  0  0  0  0  0  0
    0.1921   -0.9095   -0.3244 C   0  0  0  0  0  0  0  0  0  0  0  0
   -1.1671   -1.1007   -0.4099 C   0  0  0  0  0  0  0  0  0  0  0  0
   -3.1343    3.1701    0.3981 H   0  0  0  0  0  0  0  0  0  0  0  0
    0.2768    2.4350    0.3627 H   0  0  0  0  0  0  0  0  0  0  0  0
    3.9342    0.1030    0.0386 H   0  0  0  0  0  0  0  0  0  0  0  0
    2.9114   -0.8016   -1.1068 H   0  0  0  0  0  0  0  0  0  0  0  0
    2.8300   -1.1580    0.6464 H   0  0  0  0  0  0  0  0  0  0  0  0
    0.8642   -1.7450   -0.4732 H   0  0  0  0  0  0  0  0  0  0  0  0
   -1.5870   -2.0795   -0.6261 H   0  0  0  0  0  0  0  0  0  0  0  0
   -3.7706    3.9173    0.5294 O   0  0  0  0  0  0  0  0  0  0  0  0
   -5.0085    3.4614    0.4533 C   0  0  0  0  0  0  0  0  0  0  0  0
   -5.3698    2.3238    0.2561 O   0  0  0  0  0  0  0  0  0  0  0  0
   -6.0138    4.6190    0.6484 C   0  0  0  0  0  0  0  0  0  0  0  0
   -5.8718    5.5315   -0.3318 F   0  0  0  0  0  0  0  0  0  0  0  0
   -7.2689    4.1606    0.6225 F   0  0  0  0  0  0  0  0  0  0  0  0
   -5.8075    5.2344    1.8273 F   0  0  0  0  0  0  0  0  0  0  0  0
  1  4  2  0  0  0  0
  2  1  1  0  0  0  0
  3  2  1  0  0  0  0
  4  5  1  0  0  0  0
  5 12  1  0  0  0  0
  6  7  1  0  0  0  0
  6  5  2  0  0  0  0
  8 13  1  0  0  0  0
  8  7  1  0  0  0  0
  8 15  1  0  0  0  0
  9  6  1  0  0  0  0
 10  9  2  0  0  0  0
 10  1  1  0  0  0  0
 11 18  1  0  0  0  0
 14  8  1  0  0  0  0
 16  9  1  0  0  0  0
 17 10  1  0  0  0  0
 19 18  1  0  0  0  0
 19 21  1  0  0  0  0
 20 19  2  0  0  0  0
 21 24  1  0  0  0  0
 22 21  1  0  0  0  0
 23 21  1  0  0  0  0
M  RAD  3   2   2   3   3   4   2
M  END
