Coordinates from ORCA-job 4-MeOPhN2+~CF3COO-_B3LYPG-6-31G_dp-CH-Scan-d09-49-n800
 OpenBabel11261919493D

 24 23  0  0  0  0  0  0  0  0999 V2000
   -1.5930    0.0835   -0.1351 C   0  0  0  0  0  0  0  0  0  0  0  0
   -2.9710    0.0513   -0.1642 N   0  0  0  0  0  0  0  0  0  0  0  0
   -4.0926    0.0796   -0.1780 N   0  0  0  0  0  0  0  0  0  0  0  0
   -1.0559    1.3657    0.1321 C   0  0  0  0  0  0  0  0  0  0  0  0
    0.3506    1.3005    0.1419 C   0  0  0  0  0  0  0  0  0  0  0  0
    1.0897    0.1286   -0.0821 C   0  0  0  0  0  0  0  0  0  0  0  0
    2.4387    0.2508   -0.0352 O   0  0  0  0  0  0  0  0  0  0  0  0
    3.2600   -0.8900   -0.2515 C   0  0  0  0  0  0  0  0  0  0  0  0
    0.4438   -1.1149   -0.3429 C   0  0  0  0  0  0  0  0  0  0  0  0
   -0.9302   -1.1506   -0.3726 C   0  0  0  0  0  0  0  0  0  0  0  0
   -3.6820    4.3291    0.7263 H   0  0  0  0  0  0  0  0  0  0  0  0
    0.9426    2.1967    0.3328 H   0  0  0  0  0  0  0  0  0  0  0  0
    4.2886   -0.5370   -0.1652 H   0  0  0  0  0  0  0  0  0  0  0  0
    3.1087   -1.3137   -1.2520 H   0  0  0  0  0  0  0  0  0  0  0  0
    3.0811   -1.6660    0.5028 H   0  0  0  0  0  0  0  0  0  0  0  0
    1.0122   -2.0198   -0.5161 H   0  0  0  0  0  0  0  0  0  0  0  0
   -1.4690   -2.0747   -0.5684 H   0  0  0  0  0  0  0  0  0  0  0  0
   -4.5133    4.8326    0.7708 O   0  0  0  0  0  0  0  0  0  0  0  0
   -5.5190    3.9882    0.5262 C   0  0  0  0  0  0  0  0  0  0  0  0
   -5.4296    2.8111    0.2900 O   0  0  0  0  0  0  0  0  0  0  0  0
   -6.8661    4.7396    0.5983 C   0  0  0  0  0  0  0  0  0  0  0  0
   -6.8738    5.7782   -0.2550 F   0  0  0  0  0  0  0  0  0  0  0  0
   -7.8700    3.9183    0.2852 F   0  0  0  0  0  0  0  0  0  0  0  0
   -7.0650    5.2117    1.8421 F   0  0  0  0  0  0  0  0  0  0  0  0
  1  4  2  0  0  0  0
  2  1  1  0  0  0  0
  3  2  1  0  0  0  0
  4  5  1  0  0  0  0
  5 12  1  0  0  0  0
  6  7  1  0  0  0  0
  6  5  2  0  0  0  0
  8 13  1  0  0  0  0
  8  7  1  0  0  0  0
  8 15  1  0  0  0  0
  9  6  1  0  0  0  0
 10  9  2  0  0  0  0
 10  1  1  0  0  0  0
 11 18  1  0  0  0  0
 14  8  1  0  0  0  0
 16  9  1  0  0  0  0
 17 10  1  0  0  0  0
 19 21  1  0  0  0  0
 19 18  1  0  0  0  0
 20 19  2  0  0  0  0
 21 24  1  0  0  0  0
 22 21  1  0  0  0  0
 23 21  1  0  0  0  0
M  RAD  3   2   2   3   3   4   2
M  END
