Coordinates from ORCA-job 4-MeOPhN2+~CF3COO-_B3LYPG-6-31G_dp-CH-Scan-d09-49-n800
 OpenBabel11261919493D

 24 23  0  0  0  0  0  0  0  0999 V2000
   -2.1053    0.0381   -0.2092 C   0  0  0  0  0  0  0  0  0  0  0  0
   -3.4533   -0.2153   -0.3045 N   0  0  0  0  0  0  0  0  0  0  0  0
   -4.5600   -0.3712   -0.3710 N   0  0  0  0  0  0  0  0  0  0  0  0
   -1.7472    1.3780    0.0791 C   0  0  0  0  0  0  0  0  0  0  0  0
   -0.3583    1.5307    0.1587 C   0  0  0  0  0  0  0  0  0  0  0  0
    0.5557    0.4778   -0.0250 C   0  0  0  0  0  0  0  0  0  0  0  0
    1.8612    0.7986    0.0898 O   0  0  0  0  0  0  0  0  0  0  0  0
    2.8559   -0.2090   -0.0711 C   0  0  0  0  0  0  0  0  0  0  0  0
    0.1067   -0.8398   -0.3135 C   0  0  0  0  0  0  0  0  0  0  0  0
   -1.2460   -1.0721   -0.4090 C   0  0  0  0  0  0  0  0  0  0  0  0
   -2.9705    2.8245    0.3326 H   0  0  0  0  0  0  0  0  0  0  0  0
    0.0763    2.5047    0.3764 H   0  0  0  0  0  0  0  0  0  0  0  0
    3.8121    0.2936    0.0753 H   0  0  0  0  0  0  0  0  0  0  0  0
    2.8271   -0.6442   -1.0768 H   0  0  0  0  0  0  0  0  0  0  0  0
    2.7464   -1.0035    0.6763 H   0  0  0  0  0  0  0  0  0  0  0  0
    0.8043   -1.6545   -0.4581 H   0  0  0  0  0  0  0  0  0  0  0  0
   -1.6334   -2.0631   -0.6285 H   0  0  0  0  0  0  0  0  0  0  0  0
   -3.5717    3.6443    0.4776 O   0  0  0  0  0  0  0  0  0  0  0  0
   -4.8378    3.3095    0.4291 C   0  0  0  0  0  0  0  0  0  0  0  0
   -5.3210    2.2106    0.2416 O   0  0  0  0  0  0  0  0  0  0  0  0
   -5.7355    4.5509    0.6424 C   0  0  0  0  0  0  0  0  0  0  0  0
   -5.5409    5.4475   -0.3452 F   0  0  0  0  0  0  0  0  0  0  0  0
   -7.0293    4.2091    0.6501 F   0  0  0  0  0  0  0  0  0  0  0  0
   -5.4500    5.1531    1.8131 F   0  0  0  0  0  0  0  0  0  0  0  0
  1  4  2  0  0  0  0
  2  1  1  0  0  0  0
  3  2  1  0  0  0  0
  4  5  1  0  0  0  0
  5 12  1  0  0  0  0
  6  7  1  0  0  0  0
  6  5  2  0  0  0  0
  8 13  1  0  0  0  0
  8  7  1  0  0  0  0
  8 15  1  0  0  0  0
  9  6  1  0  0  0  0
 10  9  2  0  0  0  0
 10  1  1  0  0  0  0
 11 18  1  0  0  0  0
 14  8  1  0  0  0  0
 16  9  1  0  0  0  0
 17 10  1  0  0  0  0
 19 18  1  0  0  0  0
 19 21  1  0  0  0  0
 20 19  2  0  0  0  0
 21 23  1  0  0  0  0
 21 24  1  0  0  0  0
 22 21  1  0  0  0  0
M  RAD  3   2   2   3   3   4   2
M  END
