Coordinates from ORCA-job 4-MeOPhN2+~CF3COO-_B3LYPG-6-31G_dp-CH-Scan-d09-49-n800
 OpenBabel11261919493D

 24 23  0  0  0  0  0  0  0  0999 V2000
   -1.6595    0.0650   -0.1456 C   0  0  0  0  0  0  0  0  0  0  0  0
   -3.0356   -0.0008   -0.1837 N   0  0  0  0  0  0  0  0  0  0  0  0
   -4.1574   -0.0020   -0.2022 N   0  0  0  0  0  0  0  0  0  0  0  0
   -1.1521    1.3584    0.1260 C   0  0  0  0  0  0  0  0  0  0  0  0
    0.2549    1.3269    0.1449 C   0  0  0  0  0  0  0  0  0  0  0  0
    1.0224    0.1723   -0.0747 C   0  0  0  0  0  0  0  0  0  0  0  0
    2.3673    0.3258   -0.0179 O   0  0  0  0  0  0  0  0  0  0  0  0
    3.2167   -0.7960   -0.2268 C   0  0  0  0  0  0  0  0  0  0  0  0
    0.4069   -1.0851   -0.3410 C   0  0  0  0  0  0  0  0  0  0  0  0
   -0.9656   -1.1525   -0.3798 C   0  0  0  0  0  0  0  0  0  0  0  0
   -3.5796    4.1171    0.6621 H   0  0  0  0  0  0  0  0  0  0  0  0
    0.8242    2.2365    0.3402 H   0  0  0  0  0  0  0  0  0  0  0  0
    4.2359   -0.4193   -0.1311 H   0  0  0  0  0  0  0  0  0  0  0  0
    3.0842   -1.2226   -1.2286 H   0  0  0  0  0  0  0  0  0  0  0  0
    3.0487   -1.5758    0.5259 H   0  0  0  0  0  0  0  0  0  0  0  0
    0.9971   -1.9766   -0.5114 H   0  0  0  0  0  0  0  0  0  0  0  0
   -1.4814   -2.0885   -0.5804 H   0  0  0  0  0  0  0  0  0  0  0  0
   -4.3759    4.6733    0.7238 O   0  0  0  0  0  0  0  0  0  0  0  0
   -5.4408    3.8976    0.5102 C   0  0  0  0  0  0  0  0  0  0  0  0
   -5.4387    2.7158    0.2787 O   0  0  0  0  0  0  0  0  0  0  0  0
   -6.7317    4.7392    0.6101 C   0  0  0  0  0  0  0  0  0  0  0  0
   -6.6940    5.7654   -0.2575 F   0  0  0  0  0  0  0  0  0  0  0  0
   -7.7982    3.9848    0.3371 F   0  0  0  0  0  0  0  0  0  0  0  0
   -6.8625    5.2394    1.8520 F   0  0  0  0  0  0  0  0  0  0  0  0
  1  4  2  0  0  0  0
  2  1  1  0  0  0  0
  3  2  1  0  0  0  0
  4  5  1  0  0  0  0
  5 12  1  0  0  0  0
  6  7  1  0  0  0  0
  6  5  2  0  0  0  0
  8 13  1  0  0  0  0
  8  7  1  0  0  0  0
  8 15  1  0  0  0  0
  9  6  1  0  0  0  0
 10  9  2  0  0  0  0
 10  1  1  0  0  0  0
 11 18  1  0  0  0  0
 14  8  1  0  0  0  0
 16  9  1  0  0  0  0
 17 10  1  0  0  0  0
 19 21  1  0  0  0  0
 19 18  1  0  0  0  0
 20 19  2  0  0  0  0
 21 24  1  0  0  0  0
 22 21  1  0  0  0  0
 23 21  1  0  0  0  0
M  RAD  3   2   2   3   3   4   2
M  END
