Coordinates from ORCA-job 4-MeOPhN2+~CF3COO-_B3LYPG-6-31G_dp-CH-Scan-d09-49-n800
 OpenBabel11261919493D

 24 23  0  0  0  0  0  0  0  0999 V2000
   -2.0120    0.0398   -0.2039 C   0  0  0  0  0  0  0  0  0  0  0  0
   -3.3677   -0.1758   -0.2895 N   0  0  0  0  0  0  0  0  0  0  0  0
   -4.4785   -0.3082   -0.3500 N   0  0  0  0  0  0  0  0  0  0  0  0
   -1.6258    1.3720    0.0825 C   0  0  0  0  0  0  0  0  0  0  0  0
   -0.2308    1.4882    0.1530 C   0  0  0  0  0  0  0  0  0  0  0  0
    0.6551    0.4136   -0.0362 C   0  0  0  0  0  0  0  0  0  0  0  0
    1.9708    0.7008    0.0711 O   0  0  0  0  0  0  0  0  0  0  0  0
    2.9375   -0.3318   -0.0956 C   0  0  0  0  0  0  0  0  0  0  0  0
    0.1734   -0.8941   -0.3226 C   0  0  0  0  0  0  0  0  0  0  0  0
   -1.1845   -1.0945   -0.4100 C   0  0  0  0  0  0  0  0  0  0  0  0
   -3.0997    3.0937    0.3869 H   0  0  0  0  0  0  0  0  0  0  0  0
    0.2326    2.4501    0.3678 H   0  0  0  0  0  0  0  0  0  0  0  0
    3.9077    0.1454    0.0462 H   0  0  0  0  0  0  0  0  0  0  0  0
    2.8930   -0.7659   -1.1013 H   0  0  0  0  0  0  0  0  0  0  0  0
    2.8120   -1.1243    0.6517 H   0  0  0  0  0  0  0  0  0  0  0  0
    0.8513   -1.7248   -0.4713 H   0  0  0  0  0  0  0  0  0  0  0  0
   -1.5971   -2.0761   -0.6277 H   0  0  0  0  0  0  0  0  0  0  0  0
   -3.7254    3.8554    0.5210 O   0  0  0  0  0  0  0  0  0  0  0  0
   -4.9712    3.4272    0.4478 C   0  0  0  0  0  0  0  0  0  0  0  0
   -5.3601    2.2978    0.2505 O   0  0  0  0  0  0  0  0  0  0  0  0
   -5.9523    4.6051    0.6461 C   0  0  0  0  0  0  0  0  0  0  0  0
   -5.7981    5.5129   -0.3370 F   0  0  0  0  0  0  0  0  0  0  0  0
   -7.2171    4.1726    0.6283 F   0  0  0  0  0  0  0  0  0  0  0  0
   -5.7277    5.2196    1.8224 F   0  0  0  0  0  0  0  0  0  0  0  0
  1  4  2  0  0  0  0
  2  1  1  0  0  0  0
  3  2  1  0  0  0  0
  4  5  1  0  0  0  0
  5 12  1  0  0  0  0
  6  7  1  0  0  0  0
  6  5  2  0  0  0  0
  8 13  1  0  0  0  0
  8  7  1  0  0  0  0
  8 15  1  0  0  0  0
  9  6  1  0  0  0  0
 10  9  2  0  0  0  0
 10  1  1  0  0  0  0
 11 18  1  0  0  0  0
 14  8  1  0  0  0  0
 16  9  1  0  0  0  0
 17 10  1  0  0  0  0
 19 18  1  0  0  0  0
 19 21  1  0  0  0  0
 20 19  2  0  0  0  0
 21 24  1  0  0  0  0
 22 21  1  0  0  0  0
 23 21  1  0  0  0  0
M  RAD  3   2   2   3   3   4   2
M  END
