Coordinates from ORCA-job 4-MeOPhN2+~CF3COO-_B3LYPG-6-31G_dp-CH-Scan-d09-49-n800
 OpenBabel11261919493D

 24 23  0  0  0  0  0  0  0  0999 V2000
   -1.6585    0.0649   -0.1426 C   0  0  0  0  0  0  0  0  0  0  0  0
   -3.0348   -0.0006   -0.1783 N   0  0  0  0  0  0  0  0  0  0  0  0
   -4.1564    0.0001   -0.2057 N   0  0  0  0  0  0  0  0  0  0  0  0
   -1.1505    1.3583    0.1275 C   0  0  0  0  0  0  0  0  0  0  0  0
    0.2565    1.3265    0.1450 C   0  0  0  0  0  0  0  0  0  0  0  0
    1.0235    0.1717   -0.0751 C   0  0  0  0  0  0  0  0  0  0  0  0
    2.3686    0.3249   -0.0200 O   0  0  0  0  0  0  0  0  0  0  0  0
    3.2174   -0.7971   -0.2296 C   0  0  0  0  0  0  0  0  0  0  0  0
    0.4075   -1.0857   -0.3401 C   0  0  0  0  0  0  0  0  0  0  0  0
   -0.9652   -1.1528   -0.3771 C   0  0  0  0  0  0  0  0  0  0  0  0
   -3.5817    4.1193    0.6691 H   0  0  0  0  0  0  0  0  0  0  0  0
    0.8262    2.2360    0.3397 H   0  0  0  0  0  0  0  0  0  0  0  0
    4.2369   -0.4206   -0.1353 H   0  0  0  0  0  0  0  0  0  0  0  0
    3.0837   -1.2240   -1.2312 H   0  0  0  0  0  0  0  0  0  0  0  0
    3.0502   -1.5766    0.5235 H   0  0  0  0  0  0  0  0  0  0  0  0
    0.9972   -1.9774   -0.5106 H   0  0  0  0  0  0  0  0  0  0  0  0
   -1.4814   -2.0889   -0.5764 H   0  0  0  0  0  0  0  0  0  0  0  0
   -4.3784    4.6747    0.7308 O   0  0  0  0  0  0  0  0  0  0  0  0
   -5.4419    3.8988    0.5112 C   0  0  0  0  0  0  0  0  0  0  0  0
   -5.4385    2.7174    0.2771 O   0  0  0  0  0  0  0  0  0  0  0  0
   -6.7337    4.7396    0.6076 C   0  0  0  0  0  0  0  0  0  0  0  0
   -6.6928    5.7677   -0.2576 F   0  0  0  0  0  0  0  0  0  0  0  0
   -7.7987    3.9853    0.3284 F   0  0  0  0  0  0  0  0  0  0  0  0
   -6.8699    5.2370    1.8500 F   0  0  0  0  0  0  0  0  0  0  0  0
  1  4  2  0  0  0  0
  2  1  1  0  0  0  0
  3  2  1  0  0  0  0
  4  5  1  0  0  0  0
  5 12  1  0  0  0  0
  6  7  1  0  0  0  0
  6  5  2  0  0  0  0
  8 13  1  0  0  0  0
  8  7  1  0  0  0  0
  8 15  1  0  0  0  0
  9  6  1  0  0  0  0
 10  9  2  0  0  0  0
 10  1  1  0  0  0  0
 11 18  1  0  0  0  0
 14  8  1  0  0  0  0
 16  9  1  0  0  0  0
 17 10  1  0  0  0  0
 19 21  1  0  0  0  0
 19 18  1  0  0  0  0
 20 19  2  0  0  0  0
 21 24  1  0  0  0  0
 22 21  1  0  0  0  0
 23 21  1  0  0  0  0
M  RAD  3   2   2   3   3   4   2
M  END
