Coordinates from ORCA-job 4-MeOPhN2+~CF3COO-_B3LYPG-6-31G_dp-CH-Scan-d09-49-n800
 OpenBabel11261919493D

 24 23  0  0  0  0  0  0  0  0999 V2000
   -1.9053    0.0435   -0.1987 C   0  0  0  0  0  0  0  0  0  0  0  0
   -3.2688   -0.1276   -0.2748 N   0  0  0  0  0  0  0  0  0  0  0  0
   -4.3843   -0.2228   -0.3302 N   0  0  0  0  0  0  0  0  0  0  0  0
   -1.4849    1.3663    0.0809 C   0  0  0  0  0  0  0  0  0  0  0  0
   -0.0848    1.4401    0.1420 C   0  0  0  0  0  0  0  0  0  0  0  0
    0.7679    0.3401   -0.0492 C   0  0  0  0  0  0  0  0  0  0  0  0
    2.0936    0.5885    0.0486 O   0  0  0  0  0  0  0  0  0  0  0  0
    3.0276   -0.4722   -0.1228 C   0  0  0  0  0  0  0  0  0  0  0  0
    0.2479   -0.9554   -0.3285 C   0  0  0  0  0  0  0  0  0  0  0  0
   -1.1154   -1.1178   -0.4069 C   0  0  0  0  0  0  0  0  0  0  0  0
   -3.2383    3.3985    0.4348 H   0  0  0  0  0  0  0  0  0  0  0  0
    0.4099    2.3883    0.3503 H   0  0  0  0  0  0  0  0  0  0  0  0
    4.0129   -0.0241    0.0102 H   0  0  0  0  0  0  0  0  0  0  0  0
    2.9631   -0.9077   -1.1271 H   0  0  0  0  0  0  0  0  0  0  0  0
    2.8850   -1.2594    0.6270 H   0  0  0  0  0  0  0  0  0  0  0  0
    0.9017   -1.8050   -0.4784 H   0  0  0  0  0  0  0  0  0  0  0  0
   -1.5575   -2.0880   -0.6188 H   0  0  0  0  0  0  0  0  0  0  0  0
   -3.9107    4.1027    0.5567 O   0  0  0  0  0  0  0  0  0  0  0  0
   -5.1198    3.5652    0.4696 C   0  0  0  0  0  0  0  0  0  0  0  0
   -5.3980    2.4063    0.2742 O   0  0  0  0  0  0  0  0  0  0  0  0
   -6.1968    4.6580    0.6520 C   0  0  0  0  0  0  0  0  0  0  0  0
   -6.0873    5.5874   -0.3154 F   0  0  0  0  0  0  0  0  0  0  0  0
   -7.4196    4.1238    0.5931 F   0  0  0  0  0  0  0  0  0  0  0  0
   -6.0524    5.2696    1.8416 F   0  0  0  0  0  0  0  0  0  0  0  0
  1  4  2  0  0  0  0
  2  1  1  0  0  0  0
  3  2  1  0  0  0  0
  4  5  1  0  0  0  0
  5 12  1  0  0  0  0
  6  7  1  0  0  0  0
  6  5  2  0  0  0  0
  8 13  1  0  0  0  0
  8  7  1  0  0  0  0
  8 15  1  0  0  0  0
  9  6  1  0  0  0  0
 10  9  2  0  0  0  0
 10  1  1  0  0  0  0
 11 18  1  0  0  0  0
 14  8  1  0  0  0  0
 16  9  1  0  0  0  0
 17 10  1  0  0  0  0
 19 18  1  0  0  0  0
 19 21  1  0  0  0  0
 20 19  2  0  0  0  0
 21 24  1  0  0  0  0
 22 21  1  0  0  0  0
 23 21  1  0  0  0  0
M  RAD  3   2   2   3   3   4   2
M  END
