Coordinates from ORCA-job 4-MeOPhN2+~CF3COO-_B3LYPG-6-31G_dp-CH-Scan-d09-49-n800
 OpenBabel11261919493D

 24 23  0  0  0  0  0  0  0  0999 V2000
   -1.5209    0.1170   -0.2755 C   0  0  0  0  0  0  0  0  0  0  0  0
   -2.8973    0.1244   -0.3584 N   0  0  0  0  0  0  0  0  0  0  0  0
   -4.0161    0.1886   -0.4194 N   0  0  0  0  0  0  0  0  0  0  0  0
   -0.9575    1.3970   -0.0581 C   0  0  0  0  0  0  0  0  0  0  0  0
    0.4452    1.2932    0.0133 C   0  0  0  0  0  0  0  0  0  0  0  0
    1.1565    0.0902   -0.1131 C   0  0  0  0  0  0  0  0  0  0  0  0
    2.5058    0.1768   -0.0155 O   0  0  0  0  0  0  0  0  0  0  0  0
    3.2993   -0.9986   -0.1256 C   0  0  0  0  0  0  0  0  0  0  0  0
    0.4844   -1.1477   -0.3321 C   0  0  0  0  0  0  0  0  0  0  0  0
   -0.8877   -1.1469   -0.4174 C   0  0  0  0  0  0  0  0  0  0  0  0
   -3.7974    4.5491    0.4994 H   0  0  0  0  0  0  0  0  0  0  0  0
    1.0561    2.1819    0.1782 H   0  0  0  0  0  0  0  0  0  0  0  0
    4.3335   -0.6716   -0.0100 H   0  0  0  0  0  0  0  0  0  0  0  0
    3.1810   -1.4764   -1.1061 H   0  0  0  0  0  0  0  0  0  0  0  0
    3.0601   -1.7226    0.6628 H   0  0  0  0  0  0  0  0  0  0  0  0
    1.0328   -2.0760   -0.4319 H   0  0  0  0  0  0  0  0  0  0  0  0
   -1.4459   -2.0650   -0.5849 H   0  0  0  0  0  0  0  0  0  0  0  0
   -4.6505    4.9908    0.6522 O   0  0  0  0  0  0  0  0  0  0  0  0
   -5.6150    4.0739    0.5270 C   0  0  0  0  0  0  0  0  0  0  0  0
   -5.4685    2.9071    0.2701 O   0  0  0  0  0  0  0  0  0  0  0  0
   -6.9937    4.7276    0.7643 C   0  0  0  0  0  0  0  0  0  0  0  0
   -7.1965    5.7230   -0.1163 F   0  0  0  0  0  0  0  0  0  0  0  0
   -7.9643    3.8230    0.6215 F   0  0  0  0  0  0  0  0  0  0  0  0
   -7.0581    5.2399    2.0057 F   0  0  0  0  0  0  0  0  0  0  0  0
  1  4  2  0  0  0  0
  2  1  1  0  0  0  0
  3  2  1  0  0  0  0
  4  5  1  0  0  0  0
  5 12  1  0  0  0  0
  6  7  1  0  0  0  0
  6  5  2  0  0  0  0
  8  7  1  0  0  0  0
  8 13  1  0  0  0  0
  8 15  1  0  0  0  0
  9  6  1  0  0  0  0
 10  9  2  0  0  0  0
 10  1  1  0  0  0  0
 11 18  1  0  0  0  0
 14  8  1  0  0  0  0
 16  9  1  0  0  0  0
 17 10  1  0  0  0  0
 19 18  1  0  0  0  0
 19 21  1  0  0  0  0
 20 19  2  0  0  0  0
 21 24  1  0  0  0  0
 22 21  1  0  0  0  0
 23 21  1  0  0  0  0
M  RAD  3   2   2   3   3   4   2
M  END
