Coordinates from ORCA-job 4-MeOPhN2+~CF3COO-_B3LYPG-6-31G_dp-CH-Scan-d09-49-n800
 OpenBabel11261919493D

 24 23  0  0  0  0  0  0  0  0999 V2000
   -1.7196    0.0570   -0.1525 C   0  0  0  0  0  0  0  0  0  0  0  0
   -3.0936   -0.0359   -0.1980 N   0  0  0  0  0  0  0  0  0  0  0  0
   -4.2147   -0.0624   -0.2230 N   0  0  0  0  0  0  0  0  0  0  0  0
   -1.2344    1.3586    0.1215 C   0  0  0  0  0  0  0  0  0  0  0  0
    0.1719    1.3535    0.1477 C   0  0  0  0  0  0  0  0  0  0  0  0
    0.9612    0.2127   -0.0679 C   0  0  0  0  0  0  0  0  0  0  0  0
    2.3024    0.3905   -0.0040 O   0  0  0  0  0  0  0  0  0  0  0  0
    3.1733   -0.7159   -0.2073 C   0  0  0  0  0  0  0  0  0  0  0  0
    0.3695   -1.0551   -0.3374 C   0  0  0  0  0  0  0  0  0  0  0  0
   -1.0015   -1.1469   -0.3831 C   0  0  0  0  0  0  0  0  0  0  0  0
   -3.4899    3.9404    0.6122 H   0  0  0  0  0  0  0  0  0  0  0  0
    0.7233    2.2733    0.3458 H   0  0  0  0  0  0  0  0  0  0  0  0
    4.1848   -0.3209   -0.1048 H   0  0  0  0  0  0  0  0  0  0  0  0
    3.0550   -1.1445   -1.2100 H   0  0  0  0  0  0  0  0  0  0  0  0
    3.0142   -1.4986    0.5444 H   0  0  0  0  0  0  0  0  0  0  0  0
    0.9760   -1.9360   -0.5048 H   0  0  0  0  0  0  0  0  0  0  0  0
   -1.4992   -2.0921   -0.5864 H   0  0  0  0  0  0  0  0  0  0  0  0
   -4.2571    4.5356    0.6872 O   0  0  0  0  0  0  0  0  0  0  0  0
   -5.3635    3.8164    0.4975 C   0  0  0  0  0  0  0  0  0  0  0  0
   -5.4300    2.6348    0.2714 O   0  0  0  0  0  0  0  0  0  0  0  0
   -6.6066    4.7251    0.6162 C   0  0  0  0  0  0  0  0  0  0  0  0
   -6.5335    5.7404   -0.2621 F   0  0  0  0  0  0  0  0  0  0  0  0
   -7.7172    4.0261    0.3724 F   0  0  0  0  0  0  0  0  0  0  0  0
   -6.6856    5.2426    1.8554 F   0  0  0  0  0  0  0  0  0  0  0  0
  1  4  2  0  0  0  0
  2  1  1  0  0  0  0
  3  2  1  0  0  0  0
  4  5  1  0  0  0  0
  5 12  1  0  0  0  0
  6  7  1  0  0  0  0
  6  5  2  0  0  0  0
  8 13  1  0  0  0  0
  8  7  1  0  0  0  0
  8 15  1  0  0  0  0
  9  6  1  0  0  0  0
 10  9  2  0  0  0  0
 10  1  1  0  0  0  0
 11 18  1  0  0  0  0
 14  8  1  0  0  0  0
 16  9  1  0  0  0  0
 17 10  1  0  0  0  0
 19 21  1  0  0  0  0
 19 18  1  0  0  0  0
 20 19  2  0  0  0  0
 21 24  1  0  0  0  0
 22 21  1  0  0  0  0
 23 21  1  0  0  0  0
M  RAD  3   2   2   3   3   4   2
M  END
