Coordinates from ORCA-job 4-MeOPhN2+~CF3COO-_B3LYPG-6-31G_dp-CH-Scan-d09-49-n800
 OpenBabel11261919503D

 24 23  0  0  0  0  0  0  0  0999 V2000
   -1.3662    0.1896   -0.2754 C   0  0  0  0  0  0  0  0  0  0  0  0
   -2.7401    0.2841   -0.3522 N   0  0  0  0  0  0  0  0  0  0  0  0
   -3.8530    0.4209   -0.4037 N   0  0  0  0  0  0  0  0  0  0  0  0
   -0.7255    1.4346   -0.0725 C   0  0  0  0  0  0  0  0  0  0  0  0
    0.6689    1.2456   -0.0064 C   0  0  0  0  0  0  0  0  0  0  0  0
    1.3042    0.0006   -0.1268 C   0  0  0  0  0  0  0  0  0  0  0  0
    2.6573    0.0054   -0.0387 O   0  0  0  0  0  0  0  0  0  0  0  0
    3.3773   -1.2161   -0.1508 C   0  0  0  0  0  0  0  0  0  0  0  0
    0.5565   -1.1961   -0.3303 C   0  0  0  0  0  0  0  0  0  0  0  0
   -0.8135   -1.1125   -0.4082 C   0  0  0  0  0  0  0  0  0  0  0  0
   -4.0704    4.9632    0.4947 H   0  0  0  0  0  0  0  0  0  0  0  0
    1.3339    2.0967    0.1479 H   0  0  0  0  0  0  0  0  0  0  0  0
    4.4307   -0.9513   -0.0484 H   0  0  0  0  0  0  0  0  0  0  0  0
    3.2197   -1.6909   -1.1274 H   0  0  0  0  0  0  0  0  0  0  0  0
    3.1046   -1.9209    0.6443 H   0  0  0  0  0  0  0  0  0  0  0  0
    1.0467   -2.1570   -0.4236 H   0  0  0  0  0  0  0  0  0  0  0  0
   -1.4280   -1.9963   -0.5629 H   0  0  0  0  0  0  0  0  0  0  0  0
   -4.9735    5.2883    0.6529 O   0  0  0  0  0  0  0  0  0  0  0  0
   -5.8050    4.2459    0.5452 C   0  0  0  0  0  0  0  0  0  0  0  0
   -5.4997    3.1084    0.2987 O   0  0  0  0  0  0  0  0  0  0  0  0
   -7.2584    4.7067    0.7877 C   0  0  0  0  0  0  0  0  0  0  0  0
   -7.6061    5.6455   -0.1091 F   0  0  0  0  0  0  0  0  0  0  0  0
   -8.0945    3.6732    0.6752 F   0  0  0  0  0  0  0  0  0  0  0  0
   -7.3804    5.2311    2.0198 F   0  0  0  0  0  0  0  0  0  0  0  0
  1  4  2  0  0  0  0
  2  1  1  0  0  0  0
  3  2  1  0  0  0  0
  4  5  1  0  0  0  0
  5 12  1  0  0  0  0
  6  7  1  0  0  0  0
  6  5  2  0  0  0  0
  8 13  1  0  0  0  0
  8  7  1  0  0  0  0
  8 15  1  0  0  0  0
  9  6  1  0  0  0  0
 10  9  2  0  0  0  0
 10  1  1  0  0  0  0
 11 18  1  0  0  0  0
 14  8  1  0  0  0  0
 16  9  1  0  0  0  0
 17 10  1  0  0  0  0
 19 18  1  0  0  0  0
 19 21  1  0  0  0  0
 20 19  2  0  0  0  0
 21 24  1  0  0  0  0
 22 21  1  0  0  0  0
 23 21  1  0  0  0  0
M  RAD  3   2   2   3   3   4   2
M  END
