Coordinates from ORCA-job 4-MeOPhN2+~CF3COO-_B3LYPG-6-31G_dp-CH-Scan-d09-49-n800
 OpenBabel11261919493D

 24 23  0  0  0  0  0  0  0  0999 V2000
   -1.5894    0.0851   -0.1350 C   0  0  0  0  0  0  0  0  0  0  0  0
   -2.9674    0.0544   -0.1640 N   0  0  0  0  0  0  0  0  0  0  0  0
   -4.0891    0.0837   -0.1792 N   0  0  0  0  0  0  0  0  0  0  0  0
   -1.0506    1.3663    0.1335 C   0  0  0  0  0  0  0  0  0  0  0  0
    0.3559    1.2989    0.1435 C   0  0  0  0  0  0  0  0  0  0  0  0
    1.0933    0.1262   -0.0815 C   0  0  0  0  0  0  0  0  0  0  0  0
    2.4425    0.2464   -0.0342 O   0  0  0  0  0  0  0  0  0  0  0  0
    3.2621   -0.8954   -0.2517 C   0  0  0  0  0  0  0  0  0  0  0  0
    0.4456   -1.1161   -0.3437 C   0  0  0  0  0  0  0  0  0  0  0  0
   -0.9283   -1.1498   -0.3736 C   0  0  0  0  0  0  0  0  0  0  0  0
   -3.6869    4.3422    0.7206 H   0  0  0  0  0  0  0  0  0  0  0  0
    0.9492    2.1940    0.3354 H   0  0  0  0  0  0  0  0  0  0  0  0
    4.2912   -0.5440   -0.1650 H   0  0  0  0  0  0  0  0  0  0  0  0
    3.1103   -1.3178   -1.2526 H   0  0  0  0  0  0  0  0  0  0  0  0
    3.0821   -1.6718    0.5018 H   0  0  0  0  0  0  0  0  0  0  0  0
    1.0128   -2.0217   -0.5176 H   0  0  0  0  0  0  0  0  0  0  0  0
   -1.4685   -2.0729   -0.5703 H   0  0  0  0  0  0  0  0  0  0  0  0
   -4.5205    4.8417    0.7678 O   0  0  0  0  0  0  0  0  0  0  0  0
   -5.5232    3.9928    0.5259 C   0  0  0  0  0  0  0  0  0  0  0  0
   -5.4298    2.8158    0.2905 O   0  0  0  0  0  0  0  0  0  0  0  0
   -6.8732    4.7389    0.6001 C   0  0  0  0  0  0  0  0  0  0  0  0
   -6.8870    5.7765   -0.2544 F   0  0  0  0  0  0  0  0  0  0  0  0
   -7.8745    3.9133    0.2903 F   0  0  0  0  0  0  0  0  0  0  0  0
   -7.0711    5.2118    1.8437 F   0  0  0  0  0  0  0  0  0  0  0  0
  1  4  2  0  0  0  0
  2  1  1  0  0  0  0
  3  2  1  0  0  0  0
  4  5  1  0  0  0  0
  5 12  1  0  0  0  0
  6  7  1  0  0  0  0
  6  5  2  0  0  0  0
  8 13  1  0  0  0  0
  8  7  1  0  0  0  0
  8 15  1  0  0  0  0
  9  6  1  0  0  0  0
 10  9  2  0  0  0  0
 10  1  1  0  0  0  0
 11 18  1  0  0  0  0
 14  8  1  0  0  0  0
 16  9  1  0  0  0  0
 17 10  1  0  0  0  0
 19 21  1  0  0  0  0
 19 18  1  0  0  0  0
 20 19  2  0  0  0  0
 21 24  1  0  0  0  0
 22 21  1  0  0  0  0
 23 21  1  0  0  0  0
M  RAD  3   2   2   3   3   4   2
M  END
