Coordinates from ORCA-job 4-MeOPhN2+~CF3COO-_B3LYPG-6-31G_dp-CH-Scan-d09-49-n800
 OpenBabel11261919493D

 24 23  0  0  0  0  0  0  0  0999 V2000
   -2.0736    0.0375   -0.2048 C   0  0  0  0  0  0  0  0  0  0  0  0
   -3.4242   -0.2039   -0.2961 N   0  0  0  0  0  0  0  0  0  0  0  0
   -4.5323   -0.3528   -0.3601 N   0  0  0  0  0  0  0  0  0  0  0  0
   -1.7068    1.3748    0.0846 C   0  0  0  0  0  0  0  0  0  0  0  0
   -0.3155    1.5153    0.1599 C   0  0  0  0  0  0  0  0  0  0  0  0
    0.5894    0.4557   -0.0281 C   0  0  0  0  0  0  0  0  0  0  0  0
    1.8985    0.7656    0.0834 O   0  0  0  0  0  0  0  0  0  0  0  0
    2.8840   -0.2499   -0.0819 C   0  0  0  0  0  0  0  0  0  0  0  0
    0.1297   -0.8585   -0.3175 C   0  0  0  0  0  0  0  0  0  0  0  0
   -1.2247   -1.0805   -0.4092 C   0  0  0  0  0  0  0  0  0  0  0  0
   -3.0169    2.9164    0.3577 H   0  0  0  0  0  0  0  0  0  0  0  0
    0.1291    2.4850    0.3778 H   0  0  0  0  0  0  0  0  0  0  0  0
    3.8450    0.2443    0.0629 H   0  0  0  0  0  0  0  0  0  0  0  0
    2.8492   -0.6833   -1.0882 H   0  0  0  0  0  0  0  0  0  0  0  0
    2.7701   -1.0449    0.6644 H   0  0  0  0  0  0  0  0  0  0  0  0
    0.8210   -1.6781   -0.4653 H   0  0  0  0  0  0  0  0  0  0  0  0
   -1.6204   -2.0682   -0.6292 H   0  0  0  0  0  0  0  0  0  0  0  0
   -3.6231    3.7141    0.4989 O   0  0  0  0  0  0  0  0  0  0  0  0
   -4.8839    3.3494    0.4345 C   0  0  0  0  0  0  0  0  0  0  0  0
   -5.3358    2.2408    0.2381 O   0  0  0  0  0  0  0  0  0  0  0  0
   -5.8089    4.5712    0.6412 C   0  0  0  0  0  0  0  0  0  0  0  0
   -5.6244    5.4716   -0.3443 F   0  0  0  0  0  0  0  0  0  0  0  0
   -7.0940    4.1996    0.6369 F   0  0  0  0  0  0  0  0  0  0  0  0
   -5.5461    5.1773    1.8146 F   0  0  0  0  0  0  0  0  0  0  0  0
  1  4  2  0  0  0  0
  2  1  1  0  0  0  0
  3  2  1  0  0  0  0
  4  5  1  0  0  0  0
  5 12  1  0  0  0  0
  6  7  1  0  0  0  0
  6  5  2  0  0  0  0
  8 13  1  0  0  0  0
  8  7  1  0  0  0  0
  8 15  1  0  0  0  0
  9  6  1  0  0  0  0
 10  9  2  0  0  0  0
 10  1  1  0  0  0  0
 11 18  1  0  0  0  0
 14  8  1  0  0  0  0
 16  9  1  0  0  0  0
 17 10  1  0  0  0  0
 19 18  1  0  0  0  0
 19 21  1  0  0  0  0
 20 19  2  0  0  0  0
 21 24  1  0  0  0  0
 22 21  1  0  0  0  0
 23 21  1  0  0  0  0
M  RAD  3   2   2   3   3   4   2
M  END
