Coordinates from ORCA-job 4-MeOPhN2+~CF3COO-_B3LYPG-6-31G_dp-CH-Scan-d09-49-n800
 OpenBabel11261919503D

 24 23  0  0  0  0  0  0  0  0999 V2000
   -1.3910    0.1703   -0.2623 C   0  0  0  0  0  0  0  0  0  0  0  0
   -2.7663    0.2477   -0.3320 N   0  0  0  0  0  0  0  0  0  0  0  0
   -3.8808    0.3720   -0.3809 N   0  0  0  0  0  0  0  0  0  0  0  0
   -0.7645    1.4231   -0.0631 C   0  0  0  0  0  0  0  0  0  0  0  0
    0.6324    1.2514   -0.0047 C   0  0  0  0  0  0  0  0  0  0  0  0
    1.2824    0.0142   -0.1281 C   0  0  0  0  0  0  0  0  0  0  0  0
    2.6357    0.0357   -0.0474 O   0  0  0  0  0  0  0  0  0  0  0  0
    3.3701   -1.1769   -0.1621 C   0  0  0  0  0  0  0  0  0  0  0  0
    0.5483   -1.1916   -0.3273 C   0  0  0  0  0  0  0  0  0  0  0  0
   -0.8230   -1.1249   -0.3979 C   0  0  0  0  0  0  0  0  0  0  0  0
   -4.0221    4.8811    0.5480 H   0  0  0  0  0  0  0  0  0  0  0  0
    1.2876    2.1106    0.1458 H   0  0  0  0  0  0  0  0  0  0  0  0
    4.4206   -0.8991   -0.0650 H   0  0  0  0  0  0  0  0  0  0  0  0
    3.2136   -1.6543   -1.1376 H   0  0  0  0  0  0  0  0  0  0  0  0
    3.1096   -1.8843    0.6347 H   0  0  0  0  0  0  0  0  0  0  0  0
    1.0498   -2.1465   -0.4230 H   0  0  0  0  0  0  0  0  0  0  0  0
   -1.4273   -2.0163   -0.5492 H   0  0  0  0  0  0  0  0  0  0  0  0
   -4.9184    5.2330    0.6871 O   0  0  0  0  0  0  0  0  0  0  0  0
   -5.7793    4.2186    0.5497 C   0  0  0  0  0  0  0  0  0  0  0  0
   -5.5039    3.0741    0.3000 O   0  0  0  0  0  0  0  0  0  0  0  0
   -7.2229    4.7229    0.7622 C   0  0  0  0  0  0  0  0  0  0  0  0
   -7.5160    5.6877   -0.1265 F   0  0  0  0  0  0  0  0  0  0  0  0
   -8.0891    3.7197    0.6099 F   0  0  0  0  0  0  0  0  0  0  0  0
   -7.3602    5.2302    1.9999 F   0  0  0  0  0  0  0  0  0  0  0  0
  1  4  2  0  0  0  0
  2  1  1  0  0  0  0
  3  2  1  0  0  0  0
  4  5  1  0  0  0  0
  5 12  1  0  0  0  0
  6  7  1  0  0  0  0
  6  5  2  0  0  0  0
  8 13  1  0  0  0  0
  8  7  1  0  0  0  0
  8 15  1  0  0  0  0
  9  6  1  0  0  0  0
 10  9  2  0  0  0  0
 10  1  1  0  0  0  0
 11 18  1  0  0  0  0
 14  8  1  0  0  0  0
 16  9  1  0  0  0  0
 17 10  1  0  0  0  0
 19 18  1  0  0  0  0
 19 21  1  0  0  0  0
 20 19  2  0  0  0  0
 21 24  1  0  0  0  0
 22 21  1  0  0  0  0
 23 21  1  0  0  0  0
M  RAD  3   2   2   3   3   4   2
M  END
