Coordinates from ORCA-job 4-MeOPhN2+~CF3COO-_B3LYPG-6-31G_dp-CH-Scan-d09-49-n800
 OpenBabel11261919493D

 24 23  0  0  0  0  0  0  0  0999 V2000
   -2.0360    0.0387   -0.2044 C   0  0  0  0  0  0  0  0  0  0  0  0
   -3.3898   -0.1869   -0.2923 N   0  0  0  0  0  0  0  0  0  0  0  0
   -4.4995   -0.3261   -0.3544 N   0  0  0  0  0  0  0  0  0  0  0  0
   -1.6575    1.3729    0.0835 C   0  0  0  0  0  0  0  0  0  0  0  0
   -0.2639    1.4987    0.1560 C   0  0  0  0  0  0  0  0  0  0  0  0
    0.6295    0.4300   -0.0330 C   0  0  0  0  0  0  0  0  0  0  0  0
    1.9426    0.7261    0.0762 O   0  0  0  0  0  0  0  0  0  0  0  0
    2.9168   -0.2998   -0.0902 C   0  0  0  0  0  0  0  0  0  0  0  0
    0.1565   -0.8803   -0.3209 C   0  0  0  0  0  0  0  0  0  0  0  0
   -1.2000   -1.0892   -0.4101 C   0  0  0  0  0  0  0  0  0  0  0  0
   -3.0681    3.0246    0.3760 H   0  0  0  0  0  0  0  0  0  0  0  0
    0.1922    2.4636    0.3723 H   0  0  0  0  0  0  0  0  0  0  0  0
    3.8834    0.1840    0.0529 H   0  0  0  0  0  0  0  0  0  0  0  0
    2.8762   -0.7334   -1.0962 H   0  0  0  0  0  0  0  0  0  0  0  0
    2.7958   -1.0935    0.6565 H   0  0  0  0  0  0  0  0  0  0  0  0
    0.8397   -1.7066   -0.4694 H   0  0  0  0  0  0  0  0  0  0  0  0
   -1.6060   -2.0732   -0.6289 H   0  0  0  0  0  0  0  0  0  0  0  0
   -3.6851    3.7999    0.5127 O   0  0  0  0  0  0  0  0  0  0  0  0
   -4.9374    3.3967    0.4430 C   0  0  0  0  0  0  0  0  0  0  0  0
   -5.3513    2.2751    0.2463 O   0  0  0  0  0  0  0  0  0  0  0  0
   -5.8964    4.5924    0.6441 C   0  0  0  0  0  0  0  0  0  0  0  0
   -5.7308    5.4963   -0.3410 F   0  0  0  0  0  0  0  0  0  0  0  0
   -7.1694    4.1836    0.6329 F   0  0  0  0  0  0  0  0  0  0  0  0
   -5.6559    5.2050    1.8185 F   0  0  0  0  0  0  0  0  0  0  0  0
  1  4  2  0  0  0  0
  2  1  1  0  0  0  0
  3  2  1  0  0  0  0
  4  5  1  0  0  0  0
  5 12  1  0  0  0  0
  6  7  1  0  0  0  0
  6  5  2  0  0  0  0
  8 13  1  0  0  0  0
  8  7  1  0  0  0  0
  8 15  1  0  0  0  0
  9  6  1  0  0  0  0
 10  9  2  0  0  0  0
 10  1  1  0  0  0  0
 11 18  1  0  0  0  0
 14  8  1  0  0  0  0
 16  9  1  0  0  0  0
 17 10  1  0  0  0  0
 19 18  1  0  0  0  0
 19 21  1  0  0  0  0
 20 19  2  0  0  0  0
 21 24  1  0  0  0  0
 22 21  1  0  0  0  0
 23 21  1  0  0  0  0
M  RAD  3   2   2   3   3   4   2
M  END
