Coordinates from ORCA-job 4-MeOPhN2+~CF3COO-_B3LYPG-6-31G_dp-CH-Scan-d09-49-n800
 OpenBabel11261919493D

 24 23  0  0  0  0  0  0  0  0999 V2000
   -1.9486    0.0412   -0.2024 C   0  0  0  0  0  0  0  0  0  0  0  0
   -3.3091   -0.1478   -0.2824 N   0  0  0  0  0  0  0  0  0  0  0  0
   -4.4228   -0.2590   -0.3386 N   0  0  0  0  0  0  0  0  0  0  0  0
   -1.5424    1.3681    0.0798 C   0  0  0  0  0  0  0  0  0  0  0  0
   -0.1443    1.4596    0.1453 C   0  0  0  0  0  0  0  0  0  0  0  0
    0.7223    0.3699   -0.0444 C   0  0  0  0  0  0  0  0  0  0  0  0
    2.0439    0.6342    0.0581 O   0  0  0  0  0  0  0  0  0  0  0  0
    2.9916   -0.4151   -0.1101 C   0  0  0  0  0  0  0  0  0  0  0  0
    0.2181   -0.9309   -0.3268 C   0  0  0  0  0  0  0  0  0  0  0  0
   -1.1430   -1.1092   -0.4094 C   0  0  0  0  0  0  0  0  0  0  0  0
   -3.1824    3.2749    0.4133 H   0  0  0  0  0  0  0  0  0  0  0  0
    0.3376    2.4136    0.3563 H   0  0  0  0  0  0  0  0  0  0  0  0
    3.9706    0.0449    0.0275 H   0  0  0  0  0  0  0  0  0  0  0  0
    2.9364   -0.8504   -1.1150 H   0  0  0  0  0  0  0  0  0  0  0  0
    2.8551   -1.2044    0.6387 H   0  0  0  0  0  0  0  0  0  0  0  0
    0.8820   -1.7727   -0.4758 H   0  0  0  0  0  0  0  0  0  0  0  0
   -1.5729   -2.0842   -0.6239 H   0  0  0  0  0  0  0  0  0  0  0  0
   -3.8345    4.0025    0.5407 O   0  0  0  0  0  0  0  0  0  0  0  0
   -5.0602    3.5091    0.4608 C   0  0  0  0  0  0  0  0  0  0  0  0
   -5.3839    2.3611    0.2647 O   0  0  0  0  0  0  0  0  0  0  0  0
   -6.0983    4.6379    0.6512 C   0  0  0  0  0  0  0  0  0  0  0  0
   -5.9729    5.5569   -0.3247 F   0  0  0  0  0  0  0  0  0  0  0  0
   -7.3394    4.1447    0.6135 F   0  0  0  0  0  0  0  0  0  0  0  0
   -5.9176    5.2538    1.8338 F   0  0  0  0  0  0  0  0  0  0  0  0
  1  4  2  0  0  0  0
  2  1  1  0  0  0  0
  3  2  1  0  0  0  0
  4  5  1  0  0  0  0
  5 12  1  0  0  0  0
  6  7  1  0  0  0  0
  6  5  2  0  0  0  0
  8 13  1  0  0  0  0
  8  7  1  0  0  0  0
  8 15  1  0  0  0  0
  9  6  1  0  0  0  0
 10  9  2  0  0  0  0
 10  1  1  0  0  0  0
 11 18  1  0  0  0  0
 14  8  1  0  0  0  0
 16  9  1  0  0  0  0
 17 10  1  0  0  0  0
 19 18  1  0  0  0  0
 19 21  1  0  0  0  0
 20 19  2  0  0  0  0
 21 24  1  0  0  0  0
 22 21  1  0  0  0  0
 23 21  1  0  0  0  0
M  RAD  3   2   2   3   3   4   2
M  END
