Coordinates from ORCA-job 4-MeOPhN2+~CF3COO-_B3LYPG-6-31G_dp-CH-Scan-d09-49-n800
 OpenBabel11261919493D

 24 23  0  0  0  0  0  0  0  0999 V2000
   -1.9956    0.0403   -0.2036 C   0  0  0  0  0  0  0  0  0  0  0  0
   -3.3526   -0.1684   -0.2876 N   0  0  0  0  0  0  0  0  0  0  0  0
   -4.4641   -0.2957   -0.3470 N   0  0  0  0  0  0  0  0  0  0  0  0
   -1.6041    1.3712    0.0816 C   0  0  0  0  0  0  0  0  0  0  0  0
   -0.2083    1.4809    0.1508 C   0  0  0  0  0  0  0  0  0  0  0  0
    0.6726    0.4023   -0.0384 C   0  0  0  0  0  0  0  0  0  0  0  0
    1.9899    0.6835    0.0677 O   0  0  0  0  0  0  0  0  0  0  0  0
    2.9516   -0.3535   -0.0992 C   0  0  0  0  0  0  0  0  0  0  0  0
    0.1850   -0.9036   -0.3238 C   0  0  0  0  0  0  0  0  0  0  0  0
   -1.1738   -1.0983   -0.4099 C   0  0  0  0  0  0  0  0  0  0  0  0
   -3.1211    3.1410    0.3939 H   0  0  0  0  0  0  0  0  0  0  0  0
    0.2600    2.4408    0.3646 H   0  0  0  0  0  0  0  0  0  0  0  0
    3.9241    0.1191    0.0415 H   0  0  0  0  0  0  0  0  0  0  0  0
    2.9044   -0.7881   -1.1047 H   0  0  0  0  0  0  0  0  0  0  0  0
    2.8231   -1.1452    0.6484 H   0  0  0  0  0  0  0  0  0  0  0  0
    0.8592   -1.7373   -0.4725 H   0  0  0  0  0  0  0  0  0  0  0  0
   -1.5909   -2.0782   -0.6267 H   0  0  0  0  0  0  0  0  0  0  0  0
   -3.7533    3.8937    0.5263 O   0  0  0  0  0  0  0  0  0  0  0  0
   -4.9943    3.4484    0.4512 C   0  0  0  0  0  0  0  0  0  0  0  0
   -5.3661    2.3138    0.2539 O   0  0  0  0  0  0  0  0  0  0  0  0
   -5.9904    4.6137    0.6475 C   0  0  0  0  0  0  0  0  0  0  0  0
   -5.8438    5.5244   -0.3338 F   0  0  0  0  0  0  0  0  0  0  0  0
   -7.2493    4.1651    0.6248 F   0  0  0  0  0  0  0  0  0  0  0  0
   -5.7771    5.2289    1.8254 F   0  0  0  0  0  0  0  0  0  0  0  0
  1  4  2  0  0  0  0
  2  1  1  0  0  0  0
  3  2  1  0  0  0  0
  4  5  1  0  0  0  0
  5 12  1  0  0  0  0
  6  7  1  0  0  0  0
  6  5  2  0  0  0  0
  8 13  1  0  0  0  0
  8  7  1  0  0  0  0
  8 15  1  0  0  0  0
  9  6  1  0  0  0  0
 10  9  2  0  0  0  0
 10  1  1  0  0  0  0
 11 18  1  0  0  0  0
 14  8  1  0  0  0  0
 16  9  1  0  0  0  0
 17 10  1  0  0  0  0
 19 18  1  0  0  0  0
 19 21  1  0  0  0  0
 20 19  2  0  0  0  0
 21 24  1  0  0  0  0
 22 21  1  0  0  0  0
 23 21  1  0  0  0  0
M  RAD  3   2   2   3   3   4   2
M  END
