Coordinates from ORCA-job 4-MeOPhN2+~CF3COO-_B3LYPG-6-31G_dp-CH-Scan-d09-49-n800
 OpenBabel11261919493D

 24 23  0  0  0  0  0  0  0  0999 V2000
   -2.1535    0.0438   -0.2199 C   0  0  0  0  0  0  0  0  0  0  0  0
   -3.4983   -0.2233   -0.3220 N   0  0  0  0  0  0  0  0  0  0  0  0
   -4.6041   -0.3803   -0.3915 N   0  0  0  0  0  0  0  0  0  0  0  0
   -1.8037    1.3865    0.0623 C   0  0  0  0  0  0  0  0  0  0  0  0
   -0.4197    1.5576    0.1505 C   0  0  0  0  0  0  0  0  0  0  0  0
    0.5061    0.5123   -0.0218 C   0  0  0  0  0  0  0  0  0  0  0  0
    1.8062    0.8474    0.0989 O   0  0  0  0  0  0  0  0  0  0  0  0
    2.8131   -0.1506   -0.0510 C   0  0  0  0  0  0  0  0  0  0  0  0
    0.0704   -0.8100   -0.3051 C   0  0  0  0  0  0  0  0  0  0  0  0
   -1.2798   -1.0558   -0.4074 C   0  0  0  0  0  0  0  0  0  0  0  0
   -2.8868    2.6731    0.2813 H   0  0  0  0  0  0  0  0  0  0  0  0
   -0.0007    2.5386    0.3652 H   0  0  0  0  0  0  0  0  0  0  0  0
    3.7626    0.3638    0.0975 H   0  0  0  0  0  0  0  0  0  0  0  0
    2.7937   -0.5914   -1.0543 H   0  0  0  0  0  0  0  0  0  0  0  0
    2.7078   -0.9414    0.7009 H   0  0  0  0  0  0  0  0  0  0  0  0
    0.7760   -1.6193   -0.4409 H   0  0  0  0  0  0  0  0  0  0  0  0
   -1.6560   -2.0517   -0.6234 H   0  0  0  0  0  0  0  0  0  0  0  0
   -3.4966    3.5414    0.4340 O   0  0  0  0  0  0  0  0  0  0  0  0
   -4.7655    3.2487    0.4211 C   0  0  0  0  0  0  0  0  0  0  0  0
   -5.2954    2.1632    0.2550 O   0  0  0  0  0  0  0  0  0  0  0  0
   -5.6270    4.5145    0.6486 C   0  0  0  0  0  0  0  0  0  0  0  0
   -5.4260    5.4078   -0.3420 F   0  0  0  0  0  0  0  0  0  0  0  0
   -6.9318    4.2135    0.6797 F   0  0  0  0  0  0  0  0  0  0  0  0
   -5.3056    5.1102    1.8144 F   0  0  0  0  0  0  0  0  0  0  0  0
  1  4  2  0  0  0  0
  2  1  1  0  0  0  0
  3  2  1  0  0  0  0
  4  5  1  0  0  0  0
  5 12  1  0  0  0  0
  6  7  1  0  0  0  0
  6  5  2  0  0  0  0
  8 13  1  0  0  0  0
  8  7  1  0  0  0  0
  8 15  1  0  0  0  0
  9  6  1  0  0  0  0
 10  9  2  0  0  0  0
 10  1  1  0  0  0  0
 11 18  1  0  0  0  0
 14  8  1  0  0  0  0
 16  9  1  0  0  0  0
 17 10  1  0  0  0  0
 19 18  1  0  0  0  0
 19 21  1  0  0  0  0
 20 19  2  0  0  0  0
 21 23  1  0  0  0  0
 21 24  1  0  0  0  0
 22 21  1  0  0  0  0
M  RAD  3   2   2   3   3   4   2
M  END
