Coordinates from ORCA-job 4-MeOPhN2+~CF3COO-_B3LYPG-6-31G_dp-CH-Scan-d09-49-n800
 OpenBabel11261919493D

 24 23  0  0  0  0  0  0  0  0999 V2000
   -1.4613    0.1354   -0.2649 C   0  0  0  0  0  0  0  0  0  0  0  0
   -2.8379    0.1726   -0.3391 N   0  0  0  0  0  0  0  0  0  0  0  0
   -3.9555    0.2626   -0.3925 N   0  0  0  0  0  0  0  0  0  0  0  0
   -0.8709    1.4046   -0.0576 C   0  0  0  0  0  0  0  0  0  0  0  0
    0.5300    1.2723    0.0049 C   0  0  0  0  0  0  0  0  0  0  0  0
    1.2155    0.0546   -0.1213 C   0  0  0  0  0  0  0  0  0  0  0  0
    2.5671    0.1140   -0.0346 O   0  0  0  0  0  0  0  0  0  0  0  0
    3.3359   -1.0773   -0.1481 C   0  0  0  0  0  0  0  0  0  0  0  0
    0.5166   -1.1705   -0.3291 C   0  0  0  0  0  0  0  0  0  0  0  0
   -0.8557   -1.1423   -0.4047 C   0  0  0  0  0  0  0  0  0  0  0  0
   -3.8988    4.6923    0.5409 H   0  0  0  0  0  0  0  0  0  0  0  0
    1.1601    2.1491    0.1614 H   0  0  0  0  0  0  0  0  0  0  0  0
    4.3776   -0.7706   -0.0436 H   0  0  0  0  0  0  0  0  0  0  0  0
    3.1987   -1.5560   -1.1258 H   0  0  0  0  0  0  0  0  0  0  0  0
    3.0901   -1.7938    0.6451 H   0  0  0  0  0  0  0  0  0  0  0  0
    1.0454   -2.1103   -0.4278 H   0  0  0  0  0  0  0  0  0  0  0  0
   -1.4339   -2.0496   -0.5631 H   0  0  0  0  0  0  0  0  0  0  0  0
   -4.7716    5.0983    0.6810 O   0  0  0  0  0  0  0  0  0  0  0  0
   -5.6946    4.1410    0.5404 C   0  0  0  0  0  0  0  0  0  0  0  0
   -5.4934    2.9820    0.2862 O   0  0  0  0  0  0  0  0  0  0  0  0
   -7.1033    4.7352    0.7559 C   0  0  0  0  0  0  0  0  0  0  0  0
   -7.3325    5.7250   -0.1243 F   0  0  0  0  0  0  0  0  0  0  0  0
   -8.0322    3.7912    0.5932 F   0  0  0  0  0  0  0  0  0  0  0  0
   -7.2099    5.2388    1.9980 F   0  0  0  0  0  0  0  0  0  0  0  0
  1  4  2  0  0  0  0
  2  1  1  0  0  0  0
  3  2  1  0  0  0  0
  4  5  1  0  0  0  0
  5 12  1  0  0  0  0
  6  7  1  0  0  0  0
  6  5  2  0  0  0  0
  8 13  1  0  0  0  0
  8  7  1  0  0  0  0
  8 15  1  0  0  0  0
  9  6  1  0  0  0  0
 10  9  2  0  0  0  0
 10  1  1  0  0  0  0
 11 18  1  0  0  0  0
 14  8  1  0  0  0  0
 16  9  1  0  0  0  0
 17 10  1  0  0  0  0
 19 18  1  0  0  0  0
 19 21  1  0  0  0  0
 20 19  2  0  0  0  0
 21 24  1  0  0  0  0
 22 21  1  0  0  0  0
 23 21  1  0  0  0  0
M  RAD  3   2   2   3   3   4   2
M  END
