Coordinates from ORCA-job 4-MeOPhN2+~CF3COO-_B3LYPG-6-31G_dp-CH-Scan-d09-49-n800
 OpenBabel11261919493D

 24 23  0  0  0  0  0  0  0  0999 V2000
   -1.8255    0.0498   -0.1668 C   0  0  0  0  0  0  0  0  0  0  0  0
   -3.1943   -0.0879   -0.2255 N   0  0  0  0  0  0  0  0  0  0  0  0
   -4.3128   -0.1550   -0.2680 N   0  0  0  0  0  0  0  0  0  0  0  0
   -1.3758    1.3639    0.1080 C   0  0  0  0  0  0  0  0  0  0  0  0
    0.0279    1.4032    0.1482 C   0  0  0  0  0  0  0  0  0  0  0  0
    0.8525    0.2850   -0.0570 C   0  0  0  0  0  0  0  0  0  0  0  0
    2.1860    0.5027    0.0196 O   0  0  0  0  0  0  0  0  0  0  0  0
    3.0919   -0.5783   -0.1709 C   0  0  0  0  0  0  0  0  0  0  0  0
    0.2999   -0.9992   -0.3286 C   0  0  0  0  0  0  0  0  0  0  0  0
   -1.0675   -1.1310   -0.3870 C   0  0  0  0  0  0  0  0  0  0  0  0
   -3.3394    3.6377    0.5218 H   0  0  0  0  0  0  0  0  0  0  0  0
    0.5485    2.3395    0.3496 H   0  0  0  0  0  0  0  0  0  0  0  0
    4.0897   -0.1531   -0.0571 H   0  0  0  0  0  0  0  0  0  0  0  0
    2.9980   -1.0116   -1.1740 H   0  0  0  0  0  0  0  0  0  0  0  0
    2.9465   -1.3634    0.5808 H   0  0  0  0  0  0  0  0  0  0  0  0
    0.9328   -1.8630   -0.4879 H   0  0  0  0  0  0  0  0  0  0  0  0
   -1.5349   -2.0909   -0.5923 H   0  0  0  0  0  0  0  0  0  0  0  0
   -4.0550    4.2950    0.6194 O   0  0  0  0  0  0  0  0  0  0  0  0
   -5.2225    3.6745    0.4771 C   0  0  0  0  0  0  0  0  0  0  0  0
   -5.4054    2.5011    0.2660 O   0  0  0  0  0  0  0  0  0  0  0  0
   -6.3787    4.6877    0.6278 C   0  0  0  0  0  0  0  0  0  0  0  0
   -6.2540    5.6825   -0.2687 F   0  0  0  0  0  0  0  0  0  0  0  0
   -7.5539    4.0833    0.4353 F   0  0  0  0  0  0  0  0  0  0  0  0
   -6.3686    5.2264    1.8605 F   0  0  0  0  0  0  0  0  0  0  0  0
  1  4  2  0  0  0  0
  2  1  1  0  0  0  0
  3  2  1  0  0  0  0
  4  5  1  0  0  0  0
  5 12  1  0  0  0  0
  6  7  1  0  0  0  0
  6  5  2  0  0  0  0
  8 13  1  0  0  0  0
  8  7  1  0  0  0  0
  8 15  1  0  0  0  0
  9  6  1  0  0  0  0
 10  9  2  0  0  0  0
 10  1  1  0  0  0  0
 11 18  1  0  0  0  0
 14  8  1  0  0  0  0
 16  9  1  0  0  0  0
 17 10  1  0  0  0  0
 19 18  1  0  0  0  0
 19 21  1  0  0  0  0
 20 19  2  0  0  0  0
 21 24  1  0  0  0  0
 22 21  1  0  0  0  0
 23 21  1  0  0  0  0
M  RAD  3   2   2   3   3   4   2
M  END
