Coordinates from ORCA-job 4-MeOPhN2+~CF3COO-_B3LYPG-6-31G_dp-CH-Scan-d09-49-n800
 OpenBabel11261919493D

 24 23  0  0  0  0  0  0  0  0999 V2000
   -2.1683    0.0469   -0.2212 C   0  0  0  0  0  0  0  0  0  0  0  0
   -3.5129   -0.2214   -0.3243 N   0  0  0  0  0  0  0  0  0  0  0  0
   -4.6199   -0.3696   -0.3922 N   0  0  0  0  0  0  0  0  0  0  0  0
   -1.8181    1.3892    0.0597 C   0  0  0  0  0  0  0  0  0  0  0  0
   -0.4366    1.5668    0.1499 C   0  0  0  0  0  0  0  0  0  0  0  0
    0.4921    0.5231   -0.0202 C   0  0  0  0  0  0  0  0  0  0  0  0
    1.7904    0.8618    0.1015 O   0  0  0  0  0  0  0  0  0  0  0  0
    2.8006   -0.1336   -0.0465 C   0  0  0  0  0  0  0  0  0  0  0  0
    0.0590   -0.7998   -0.3025 C   0  0  0  0  0  0  0  0  0  0  0  0
   -1.2909   -1.0491   -0.4061 C   0  0  0  0  0  0  0  0  0  0  0  0
   -2.8522    2.6135    0.2667 H   0  0  0  0  0  0  0  0  0  0  0  0
   -0.0229    2.5500    0.3641 H   0  0  0  0  0  0  0  0  0  0  0  0
    3.7483    0.3838    0.1023 H   0  0  0  0  0  0  0  0  0  0  0  0
    2.7830   -0.5752   -1.0494 H   0  0  0  0  0  0  0  0  0  0  0  0
    2.6966   -0.9237    0.7062 H   0  0  0  0  0  0  0  0  0  0  0  0
    0.7664   -1.6079   -0.4365 H   0  0  0  0  0  0  0  0  0  0  0  0
   -1.6641   -2.0461   -0.6213 H   0  0  0  0  0  0  0  0  0  0  0  0
   -3.4755    3.5077    0.4233 O   0  0  0  0  0  0  0  0  0  0  0  0
   -4.7433    3.2292    0.4169 C   0  0  0  0  0  0  0  0  0  0  0  0
   -5.2895    2.1488    0.2538 O   0  0  0  0  0  0  0  0  0  0  0  0
   -5.5956    4.5014    0.6487 C   0  0  0  0  0  0  0  0  0  0  0  0
   -5.3913    5.3957   -0.3411 F   0  0  0  0  0  0  0  0  0  0  0  0
   -6.9038    4.2131    0.6841 F   0  0  0  0  0  0  0  0  0  0  0  0
   -5.2663    5.0941    1.8145 F   0  0  0  0  0  0  0  0  0  0  0  0
  1  4  2  0  0  0  0
  2  1  1  0  0  0  0
  3  2  1  0  0  0  0
  4  5  1  0  0  0  0
  5 12  1  0  0  0  0
  6  7  1  0  0  0  0
  6  5  2  0  0  0  0
  8  7  1  0  0  0  0
  8 13  1  0  0  0  0
  8 15  1  0  0  0  0
  9  6  1  0  0  0  0
 10  9  2  0  0  0  0
 10  1  1  0  0  0  0
 11 18  1  0  0  0  0
 14  8  1  0  0  0  0
 16  9  1  0  0  0  0
 17 10  1  0  0  0  0
 19 18  1  0  0  0  0
 19 21  1  0  0  0  0
 20 19  2  0  0  0  0
 21 23  1  0  0  0  0
 21 24  1  0  0  0  0
 22 21  1  0  0  0  0
M  RAD  3   2   2   3   3   4   2
M  END
