Coordinates from ORCA-job 4-MeOPhN2+~CF3COO-_B3LYPG-6-31G_dp-CH-Scan-d09-49-n800
 OpenBabel11261919493D

 24 23  0  0  0  0  0  0  0  0999 V2000
   -1.8616    0.0462   -0.1800 C   0  0  0  0  0  0  0  0  0  0  0  0
   -3.2280   -0.1066   -0.2470 N   0  0  0  0  0  0  0  0  0  0  0  0
   -4.3454   -0.1863   -0.2931 N   0  0  0  0  0  0  0  0  0  0  0  0
   -1.4255    1.3644    0.0978 C   0  0  0  0  0  0  0  0  0  0  0  0
   -0.0232    1.4196    0.1470 C   0  0  0  0  0  0  0  0  0  0  0  0
    0.8144    0.3099   -0.0531 C   0  0  0  0  0  0  0  0  0  0  0  0
    2.1445    0.5419    0.0325 O   0  0  0  0  0  0  0  0  0  0  0  0
    3.0634   -0.5295   -0.1509 C   0  0  0  0  0  0  0  0  0  0  0  0
    0.2768   -0.9795   -0.3287 C   0  0  0  0  0  0  0  0  0  0  0  0
   -1.0888   -1.1255   -0.3957 C   0  0  0  0  0  0  0  0  0  0  0  0
   -3.2940    3.5249    0.4849 H   0  0  0  0  0  0  0  0  0  0  0  0
    0.4856    2.3614    0.3519 H   0  0  0  0  0  0  0  0  0  0  0  0
    4.0556   -0.0936   -0.0290 H   0  0  0  0  0  0  0  0  0  0  0  0
    2.9821   -0.9632   -1.1549 H   0  0  0  0  0  0  0  0  0  0  0  0
    2.9203   -1.3162    0.5995 H   0  0  0  0  0  0  0  0  0  0  0  0
    0.9194   -1.8366   -0.4845 H   0  0  0  0  0  0  0  0  0  0  0  0
   -1.5447   -2.0901   -0.6045 H   0  0  0  0  0  0  0  0  0  0  0  0
   -3.9891    4.2052    0.5910 O   0  0  0  0  0  0  0  0  0  0  0  0
   -5.1776    3.6237    0.4750 C   0  0  0  0  0  0  0  0  0  0  0  0
   -5.4058    2.4556    0.2752 O   0  0  0  0  0  0  0  0  0  0  0  0
   -6.2966    4.6764    0.6366 C   0  0  0  0  0  0  0  0  0  0  0  0
   -6.1701    5.6428   -0.2908 F   0  0  0  0  0  0  0  0  0  0  0  0
   -7.4963    4.1059    0.4981 F   0  0  0  0  0  0  0  0  0  0  0  0
   -6.2302    5.2478    1.8528 F   0  0  0  0  0  0  0  0  0  0  0  0
  1  4  2  0  0  0  0
  2  1  1  0  0  0  0
  3  2  1  0  0  0  0
  4  5  1  0  0  0  0
  5 12  1  0  0  0  0
  6  7  1  0  0  0  0
  6  5  2  0  0  0  0
  8 13  1  0  0  0  0
  8  7  1  0  0  0  0
  8 15  1  0  0  0  0
  9  6  1  0  0  0  0
 10  9  2  0  0  0  0
 10  1  1  0  0  0  0
 11 18  1  0  0  0  0
 14  8  1  0  0  0  0
 16  9  1  0  0  0  0
 17 10  1  0  0  0  0
 19 18  1  0  0  0  0
 19 21  1  0  0  0  0
 20 19  2  0  0  0  0
 21 24  1  0  0  0  0
 22 21  1  0  0  0  0
 23 21  1  0  0  0  0
M  RAD  3   2   2   3   3   4   2
M  END
