Coordinates from ORCA-job 4-MeOPhN2+~CF3COO-_B3LYPG-6-31G_dp-CH-Scan-d09-49-n800
 OpenBabel11261919493D

 24 23  0  0  0  0  0  0  0  0999 V2000
   -2.1365    0.0409   -0.2155 C   0  0  0  0  0  0  0  0  0  0  0  0
   -3.4823   -0.2226   -0.3151 N   0  0  0  0  0  0  0  0  0  0  0  0
   -4.5880   -0.3818   -0.3838 N   0  0  0  0  0  0  0  0  0  0  0  0
   -1.7849    1.3830    0.0691 C   0  0  0  0  0  0  0  0  0  0  0  0
   -0.3989    1.5475    0.1539 C   0  0  0  0  0  0  0  0  0  0  0  0
    0.5231    0.5000   -0.0228 C   0  0  0  0  0  0  0  0  0  0  0  0
    1.8252    0.8306    0.0955 O   0  0  0  0  0  0  0  0  0  0  0  0
    2.8281   -0.1704   -0.0586 C   0  0  0  0  0  0  0  0  0  0  0  0
    0.0834   -0.8208   -0.3082 C   0  0  0  0  0  0  0  0  0  0  0  0
   -1.2676   -1.0623   -0.4078 C   0  0  0  0  0  0  0  0  0  0  0  0
   -2.9193    2.7297    0.3012 H   0  0  0  0  0  0  0  0  0  0  0  0
    0.0257    2.5261    0.3698 H   0  0  0  0  0  0  0  0  0  0  0  0
    3.7799    0.3401    0.0890 H   0  0  0  0  0  0  0  0  0  0  0  0
    2.8053   -0.6091   -1.0629 H   0  0  0  0  0  0  0  0  0  0  0  0
    2.7218   -0.9627    0.6915 H   0  0  0  0  0  0  0  0  0  0  0  0
    0.7865   -1.6317   -0.4475 H   0  0  0  0  0  0  0  0  0  0  0  0
   -1.6474   -2.0566   -0.6252 H   0  0  0  0  0  0  0  0  0  0  0  0
   -3.5224    3.5774    0.4509 O   0  0  0  0  0  0  0  0  0  0  0  0
   -4.7912    3.2703    0.4236 C   0  0  0  0  0  0  0  0  0  0  0  0
   -5.3046    2.1805    0.2482 O   0  0  0  0  0  0  0  0  0  0  0  0
   -5.6644    4.5283    0.6460 C   0  0  0  0  0  0  0  0  0  0  0  0
   -5.4633    5.4234   -0.3424 F   0  0  0  0  0  0  0  0  0  0  0  0
   -6.9657    4.2139    0.6667 F   0  0  0  0  0  0  0  0  0  0  0  0
   -5.3567    5.1249    1.8146 F   0  0  0  0  0  0  0  0  0  0  0  0
  1  4  2  0  0  0  0
  2  1  1  0  0  0  0
  3  2  1  0  0  0  0
  4  5  1  0  0  0  0
  5 12  1  0  0  0  0
  6  7  1  0  0  0  0
  6  5  2  0  0  0  0
  8 13  1  0  0  0  0
  8  7  1  0  0  0  0
  8 15  1  0  0  0  0
  9  6  1  0  0  0  0
 10  9  2  0  0  0  0
 10  1  1  0  0  0  0
 11 18  1  0  0  0  0
 14  8  1  0  0  0  0
 16  9  1  0  0  0  0
 17 10  1  0  0  0  0
 19 18  1  0  0  0  0
 19 21  1  0  0  0  0
 20 19  2  0  0  0  0
 21 23  1  0  0  0  0
 21 24  1  0  0  0  0
 22 21  1  0  0  0  0
M  RAD  3   2   2   3   3   4   2
M  END
