Coordinates from ORCA-job 4-MeOPhN2+~CF3COO-_B3LYPG-6-31G_dp-CH-Scan-d09-49-n800
 OpenBabel11261919493D

 24 23  0  0  0  0  0  0  0  0999 V2000
   -1.4716    0.1316   -0.2670 C   0  0  0  0  0  0  0  0  0  0  0  0
   -2.8483    0.1636   -0.3425 N   0  0  0  0  0  0  0  0  0  0  0  0
   -3.9660    0.2498   -0.3983 N   0  0  0  0  0  0  0  0  0  0  0  0
   -0.8860    1.4030   -0.0592 C   0  0  0  0  0  0  0  0  0  0  0  0
    0.5153    1.2760    0.0047 C   0  0  0  0  0  0  0  0  0  0  0  0
    1.2054    0.0607   -0.1205 C   0  0  0  0  0  0  0  0  0  0  0  0
    2.5567    0.1251   -0.0322 O   0  0  0  0  0  0  0  0  0  0  0  0
    3.3299   -1.0634   -0.1442 C   0  0  0  0  0  0  0  0  0  0  0  0
    0.5113   -1.1669   -0.3291 C   0  0  0  0  0  0  0  0  0  0  0  0
   -0.8611   -1.1437   -0.4061 C   0  0  0  0  0  0  0  0  0  0  0  0
   -3.8811    4.6665    0.5370 H   0  0  0  0  0  0  0  0  0  0  0  0
    1.1420    2.1551    0.1619 H   0  0  0  0  0  0  0  0  0  0  0  0
    4.3703   -0.7529   -0.0383 H   0  0  0  0  0  0  0  0  0  0  0  0
    3.1959   -1.5429   -1.1219 H   0  0  0  0  0  0  0  0  0  0  0  0
    3.0855   -1.7806    0.6489 H   0  0  0  0  0  0  0  0  0  0  0  0
    1.0436   -2.1048   -0.4272 H   0  0  0  0  0  0  0  0  0  0  0  0
   -1.4357   -2.0532   -0.5653 H   0  0  0  0  0  0  0  0  0  0  0  0
   -4.7505    5.0793    0.6786 O   0  0  0  0  0  0  0  0  0  0  0  0
   -5.6812    4.1295    0.5387 C   0  0  0  0  0  0  0  0  0  0  0  0
   -5.4896    2.9691    0.2831 O   0  0  0  0  0  0  0  0  0  0  0  0
   -7.0848    4.7346    0.7569 C   0  0  0  0  0  0  0  0  0  0  0  0
   -7.3076    5.7268   -0.1223 F   0  0  0  0  0  0  0  0  0  0  0  0
   -8.0214    3.7982    0.5951 F   0  0  0  0  0  0  0  0  0  0  0  0
   -7.1855    5.2383    1.9995 F   0  0  0  0  0  0  0  0  0  0  0  0
  1  4  2  0  0  0  0
  2  1  1  0  0  0  0
  3  2  1  0  0  0  0
  4  5  1  0  0  0  0
  5 12  1  0  0  0  0
  6  7  1  0  0  0  0
  6  5  2  0  0  0  0
  8 13  1  0  0  0  0
  8  7  1  0  0  0  0
  8 15  1  0  0  0  0
  9  6  1  0  0  0  0
 10  9  2  0  0  0  0
 10  1  1  0  0  0  0
 11 18  1  0  0  0  0
 14  8  1  0  0  0  0
 16  9  1  0  0  0  0
 17 10  1  0  0  0  0
 19 18  1  0  0  0  0
 19 21  1  0  0  0  0
 20 19  2  0  0  0  0
 21 24  1  0  0  0  0
 22 21  1  0  0  0  0
 23 21  1  0  0  0  0
M  RAD  3   2   2   3   3   4   2
M  END
