Coordinates from ORCA-job 4-MeOPhN2+~CF3COO-_B3LYPG-6-31G_dp-CH-Scan-d09-49-n800
 OpenBabel11261919493D

 24 23  0  0  0  0  0  0  0  0999 V2000
   -1.8011    0.0514   -0.1625 C   0  0  0  0  0  0  0  0  0  0  0  0
   -3.1713   -0.0761   -0.2180 N   0  0  0  0  0  0  0  0  0  0  0  0
   -4.2906   -0.1346   -0.2546 N   0  0  0  0  0  0  0  0  0  0  0  0
   -1.3432    1.3627    0.1125 C   0  0  0  0  0  0  0  0  0  0  0  0
    0.0614    1.3916    0.1489 C   0  0  0  0  0  0  0  0  0  0  0  0
    0.8777    0.2680   -0.0593 C   0  0  0  0  0  0  0  0  0  0  0  0
    2.2132    0.4765    0.0139 O   0  0  0  0  0  0  0  0  0  0  0  0
    3.1109   -0.6104   -0.1804 C   0  0  0  0  0  0  0  0  0  0  0  0
    0.3159   -1.0124   -0.3307 C   0  0  0  0  0  0  0  0  0  0  0  0
   -1.0524   -1.1348   -0.3857 C   0  0  0  0  0  0  0  0  0  0  0  0
   -3.3721    3.7103    0.5445 H   0  0  0  0  0  0  0  0  0  0  0  0
    0.5893    2.3240    0.3496 H   0  0  0  0  0  0  0  0  0  0  0  0
    4.1121   -0.1922   -0.0696 H   0  0  0  0  0  0  0  0  0  0  0  0
    3.0109   -1.0424   -1.1835 H   0  0  0  0  0  0  0  0  0  0  0  0
    2.9628   -1.3953    0.5711 H   0  0  0  0  0  0  0  0  0  0  0  0
    0.9427   -1.8801   -0.4924 H   0  0  0  0  0  0  0  0  0  0  0  0
   -1.5269   -2.0913   -0.5908 H   0  0  0  0  0  0  0  0  0  0  0  0
   -4.1006    4.3529    0.6366 O   0  0  0  0  0  0  0  0  0  0  0  0
   -5.2542    3.7079    0.4815 C   0  0  0  0  0  0  0  0  0  0  0  0
   -5.4085    2.5317    0.2660 O   0  0  0  0  0  0  0  0  0  0  0  0
   -6.4326    4.6963    0.6241 C   0  0  0  0  0  0  0  0  0  0  0  0
   -6.3187    5.6977   -0.2663 F   0  0  0  0  0  0  0  0  0  0  0  0
   -7.5927    4.0685    0.4160 F   0  0  0  0  0  0  0  0  0  0  0  0
   -6.4465    5.2288    1.8594 F   0  0  0  0  0  0  0  0  0  0  0  0
  1  4  2  0  0  0  0
  2  1  1  0  0  0  0
  3  2  1  0  0  0  0
  4  5  1  0  0  0  0
  5 12  1  0  0  0  0
  6  7  1  0  0  0  0
  6  5  2  0  0  0  0
  8 13  1  0  0  0  0
  8  7  1  0  0  0  0
  8 15  1  0  0  0  0
  9  6  1  0  0  0  0
 10  9  2  0  0  0  0
 10  1  1  0  0  0  0
 11 18  1  0  0  0  0
 14  8  1  0  0  0  0
 16  9  1  0  0  0  0
 17 10  1  0  0  0  0
 19 21  1  0  0  0  0
 19 18  1  0  0  0  0
 20 19  2  0  0  0  0
 21 24  1  0  0  0  0
 22 21  1  0  0  0  0
 23 21  1  0  0  0  0
M  RAD  3   2   2   3   3   4   2
M  END
