Coordinates from ORCA-job 4-MeOPhN2+~CF3COO-_B3LYPG-6-31G_dp-CH-Scan-d09-49-n800
 OpenBabel11261919493D

 24 23  0  0  0  0  0  0  0  0999 V2000
   -1.7555    0.0539   -0.1554 C   0  0  0  0  0  0  0  0  0  0  0  0
   -3.1278   -0.0547   -0.2042 N   0  0  0  0  0  0  0  0  0  0  0  0
   -4.2483   -0.0946   -0.2375 N   0  0  0  0  0  0  0  0  0  0  0  0
   -1.2825    1.3600    0.1188 C   0  0  0  0  0  0  0  0  0  0  0  0
    0.1232    1.3700    0.1488 C   0  0  0  0  0  0  0  0  0  0  0  0
    0.9246    0.2368   -0.0642 C   0  0  0  0  0  0  0  0  0  0  0  0
    2.2633    0.4284    0.0031 O   0  0  0  0  0  0  0  0  0  0  0  0
    3.1462   -0.6694   -0.1969 C   0  0  0  0  0  0  0  0  0  0  0  0
    0.3461   -1.0367   -0.3342 C   0  0  0  0  0  0  0  0  0  0  0  0
   -1.0238   -1.1423   -0.3832 C   0  0  0  0  0  0  0  0  0  0  0  0
   -3.4369    3.8400    0.5857 H   0  0  0  0  0  0  0  0  0  0  0  0
    0.6644    2.2954    0.3480 H   0  0  0  0  0  0  0  0  0  0  0  0
    4.1532   -0.2640   -0.0913 H   0  0  0  0  0  0  0  0  0  0  0  0
    3.0354   -1.0994   -1.1998 H   0  0  0  0  0  0  0  0  0  0  0  0
    2.9925   -1.4531    0.5547 H   0  0  0  0  0  0  0  0  0  0  0  0
    0.9617   -1.9117   -0.4995 H   0  0  0  0  0  0  0  0  0  0  0  0
   -1.5113   -2.0926   -0.5870 H   0  0  0  0  0  0  0  0  0  0  0  0
   -4.1877    4.4559    0.6681 O   0  0  0  0  0  0  0  0  0  0  0  0
   -5.3154    3.7690    0.4905 C   0  0  0  0  0  0  0  0  0  0  0  0
   -5.4195    2.5895    0.2674 O   0  0  0  0  0  0  0  0  0  0  0  0
   -6.5310    4.7131    0.6184 C   0  0  0  0  0  0  0  0  0  0  0  0
   -6.4378    5.7236   -0.2637 F   0  0  0  0  0  0  0  0  0  0  0  0
   -7.6636    4.0452    0.3870 F   0  0  0  0  0  0  0  0  0  0  0  0
   -6.5842    5.2362    1.8566 F   0  0  0  0  0  0  0  0  0  0  0  0
  1  4  2  0  0  0  0
  2  1  1  0  0  0  0
  3  2  1  0  0  0  0
  4  5  1  0  0  0  0
  5 12  1  0  0  0  0
  6  7  1  0  0  0  0
  6  5  2  0  0  0  0
  8 13  1  0  0  0  0
  8  7  1  0  0  0  0
  8 15  1  0  0  0  0
  9  6  1  0  0  0  0
 10  9  2  0  0  0  0
 10  1  1  0  0  0  0
 11 18  1  0  0  0  0
 14  8  1  0  0  0  0
 16  9  1  0  0  0  0
 17 10  1  0  0  0  0
 19 21  1  0  0  0  0
 19 18  1  0  0  0  0
 20 19  2  0  0  0  0
 21 24  1  0  0  0  0
 22 21  1  0  0  0  0
 23 21  1  0  0  0  0
M  RAD  3   2   2   3   3   4   2
M  END
