Coordinates from ORCA-job 4-MeOPhN2+~CF3COO-_B3LYPG-6-31G_dp-CH-Scan-d09-49-n800
 OpenBabel11261919493D

 24 23  0  0  0  0  0  0  0  0999 V2000
   -2.1264    0.0399   -0.2136 C   0  0  0  0  0  0  0  0  0  0  0  0
   -3.4728   -0.2206   -0.3119 N   0  0  0  0  0  0  0  0  0  0  0  0
   -4.5788   -0.3793   -0.3801 N   0  0  0  0  0  0  0  0  0  0  0  0
   -1.7730    1.3813    0.0724 C   0  0  0  0  0  0  0  0  0  0  0  0
   -0.3860    1.5419    0.1556 C   0  0  0  0  0  0  0  0  0  0  0  0
    0.5336    0.4928   -0.0235 C   0  0  0  0  0  0  0  0  0  0  0  0
    1.8368    0.8202    0.0939 O   0  0  0  0  0  0  0  0  0  0  0  0
    2.8371   -0.1828   -0.0626 C   0  0  0  0  0  0  0  0  0  0  0  0
    0.0910   -0.8270   -0.3102 C   0  0  0  0  0  0  0  0  0  0  0  0
   -1.2605   -1.0656   -0.4085 C   0  0  0  0  0  0  0  0  0  0  0  0
   -2.9368    2.7615    0.3115 H   0  0  0  0  0  0  0  0  0  0  0  0
    0.0420    2.5189    0.3723 H   0  0  0  0  0  0  0  0  0  0  0  0
    3.7903    0.3252    0.0848 H   0  0  0  0  0  0  0  0  0  0  0  0
    2.8125   -0.6203   -1.0673 H   0  0  0  0  0  0  0  0  0  0  0  0
    2.7297   -0.9760    0.6866 H   0  0  0  0  0  0  0  0  0  0  0  0
    0.7924   -1.6391   -0.4512 H   0  0  0  0  0  0  0  0  0  0  0  0
   -1.6427   -2.0589   -0.6267 H   0  0  0  0  0  0  0  0  0  0  0  0
   -3.5382    3.5991    0.4595 O   0  0  0  0  0  0  0  0  0  0  0  0
   -4.8064    3.2830    0.4258 C   0  0  0  0  0  0  0  0  0  0  0  0
   -5.3100    2.1900    0.2472 O   0  0  0  0  0  0  0  0  0  0  0  0
   -5.6873    4.5359    0.6448 C   0  0  0  0  0  0  0  0  0  0  0  0
   -5.4886    5.4308   -0.3440 F   0  0  0  0  0  0  0  0  0  0  0  0
   -6.9862    4.2126    0.6620 F   0  0  0  0  0  0  0  0  0  0  0  0
   -5.3862    5.1350    1.8136 F   0  0  0  0  0  0  0  0  0  0  0  0
  1  4  2  0  0  0  0
  2  1  1  0  0  0  0
  3  2  1  0  0  0  0
  4  5  1  0  0  0  0
  5 12  1  0  0  0  0
  6  7  1  0  0  0  0
  6  5  2  0  0  0  0
  8 13  1  0  0  0  0
  8  7  1  0  0  0  0
  8 15  1  0  0  0  0
  9  6  1  0  0  0  0
 10  9  2  0  0  0  0
 10  1  1  0  0  0  0
 11 18  1  0  0  0  0
 14  8  1  0  0  0  0
 16  9  1  0  0  0  0
 17 10  1  0  0  0  0
 19 18  1  0  0  0  0
 19 21  1  0  0  0  0
 20 19  2  0  0  0  0
 21 23  1  0  0  0  0
 21 24  1  0  0  0  0
 22 21  1  0  0  0  0
M  RAD  3   2   2   3   3   4   2
M  END
