Coordinates from ORCA-job 4-MeOPhN2+~CF3COO-_B3LYPG-6-31G_dp-CH-Scan-d09-49-n800
 OpenBabel11261919493D

 24 23  0  0  0  0  0  0  0  0999 V2000
   -1.9460    0.0411   -0.2032 C   0  0  0  0  0  0  0  0  0  0  0  0
   -3.3065   -0.1476   -0.2840 N   0  0  0  0  0  0  0  0  0  0  0  0
   -4.4205   -0.2577   -0.3364 N   0  0  0  0  0  0  0  0  0  0  0  0
   -1.5393    1.3680    0.0792 C   0  0  0  0  0  0  0  0  0  0  0  0
   -0.1410    1.4582    0.1448 C   0  0  0  0  0  0  0  0  0  0  0  0
    0.7249    0.3680   -0.0447 C   0  0  0  0  0  0  0  0  0  0  0  0
    2.0468    0.6314    0.0581 O   0  0  0  0  0  0  0  0  0  0  0  0
    2.9938   -0.4184   -0.1100 C   0  0  0  0  0  0  0  0  0  0  0  0
    0.2200   -0.9325   -0.3271 C   0  0  0  0  0  0  0  0  0  0  0  0
   -1.1411   -1.1099   -0.4101 C   0  0  0  0  0  0  0  0  0  0  0  0
   -3.1855    3.2827    0.4129 H   0  0  0  0  0  0  0  0  0  0  0  0
    0.3416    2.4119    0.3557 H   0  0  0  0  0  0  0  0  0  0  0  0
    3.9731    0.0410    0.0276 H   0  0  0  0  0  0  0  0  0  0  0  0
    2.9384   -0.8537   -1.1149 H   0  0  0  0  0  0  0  0  0  0  0  0
    2.8567   -1.2077    0.6387 H   0  0  0  0  0  0  0  0  0  0  0  0
    0.8835   -1.7747   -0.4761 H   0  0  0  0  0  0  0  0  0  0  0  0
   -1.5715   -2.0847   -0.6247 H   0  0  0  0  0  0  0  0  0  0  0  0
   -3.8391    4.0088    0.5396 O   0  0  0  0  0  0  0  0  0  0  0  0
   -5.0641    3.5128    0.4613 C   0  0  0  0  0  0  0  0  0  0  0  0
   -5.3848    2.3640    0.2664 O   0  0  0  0  0  0  0  0  0  0  0  0
   -6.1043    4.6395    0.6519 C   0  0  0  0  0  0  0  0  0  0  0  0
   -5.9809    5.5588   -0.3240 F   0  0  0  0  0  0  0  0  0  0  0  0
   -7.3444    4.1438    0.6146 F   0  0  0  0  0  0  0  0  0  0  0  0
   -5.9244    5.2556    1.8345 F   0  0  0  0  0  0  0  0  0  0  0  0
  1  4  2  0  0  0  0
  2  1  1  0  0  0  0
  3  2  1  0  0  0  0
  4  5  1  0  0  0  0
  5 12  1  0  0  0  0
  6  7  1  0  0  0  0
  6  5  2  0  0  0  0
  8 13  1  0  0  0  0
  8  7  1  0  0  0  0
  8 15  1  0  0  0  0
  9  6  1  0  0  0  0
 10  9  2  0  0  0  0
 10  1  1  0  0  0  0
 11 18  1  0  0  0  0
 14  8  1  0  0  0  0
 16  9  1  0  0  0  0
 17 10  1  0  0  0  0
 19 18  1  0  0  0  0
 19 21  1  0  0  0  0
 20 19  2  0  0  0  0
 21 24  1  0  0  0  0
 22 21  1  0  0  0  0
 23 21  1  0  0  0  0
M  RAD  3   2   2   3   3   4   2
M  END
