Coordinates from ORCA-job 4-MeOPhN2+~CF3COO-_B3LYPG-6-31G_dp-CH-Scan-d09-49-n800
 OpenBabel11261919493D

 24 23  0  0  0  0  0  0  0  0999 V2000
   -1.9258    0.0422   -0.2014 C   0  0  0  0  0  0  0  0  0  0  0  0
   -3.2878   -0.1377   -0.2798 N   0  0  0  0  0  0  0  0  0  0  0  0
   -4.4025   -0.2405   -0.3343 N   0  0  0  0  0  0  0  0  0  0  0  0
   -1.5123    1.3671    0.0794 C   0  0  0  0  0  0  0  0  0  0  0  0
   -0.1131    1.4492    0.1429 C   0  0  0  0  0  0  0  0  0  0  0  0
    0.7463    0.3541   -0.0471 C   0  0  0  0  0  0  0  0  0  0  0  0
    2.0701    0.6101    0.0534 O   0  0  0  0  0  0  0  0  0  0  0  0
    3.0107   -0.4452   -0.1159 C   0  0  0  0  0  0  0  0  0  0  0  0
    0.2339   -0.9440   -0.3278 C   0  0  0  0  0  0  0  0  0  0  0  0
   -1.1283   -1.1141   -0.4086 C   0  0  0  0  0  0  0  0  0  0  0  0
   -3.2117    3.3410    0.4227 H   0  0  0  0  0  0  0  0  0  0  0  0
    0.3755    2.4002    0.3524 H   0  0  0  0  0  0  0  0  0  0  0  0
    3.9930    0.0087    0.0196 H   0  0  0  0  0  0  0  0  0  0  0  0
    2.9510   -0.8808   -1.1204 H   0  0  0  0  0  0  0  0  0  0  0  0
    2.8707   -1.2333    0.6335 H   0  0  0  0  0  0  0  0  0  0  0  0
    0.8927   -1.7899   -0.4770 H   0  0  0  0  0  0  0  0  0  0  0  0
   -1.5645   -2.0866   -0.6217 H   0  0  0  0  0  0  0  0  0  0  0  0
   -3.8746    4.0560    0.5472 O   0  0  0  0  0  0  0  0  0  0  0  0
   -5.0918    3.5389    0.4654 C   0  0  0  0  0  0  0  0  0  0  0  0
   -5.3913    2.3848    0.2707 O   0  0  0  0  0  0  0  0  0  0  0  0
   -6.1505    4.6488    0.6526 C   0  0  0  0  0  0  0  0  0  0  0  0
   -6.0346    5.5731   -0.3193 F   0  0  0  0  0  0  0  0  0  0  0  0
   -7.3822    4.1338    0.6053 F   0  0  0  0  0  0  0  0  0  0  0  0
   -5.9876    5.2630    1.8385 F   0  0  0  0  0  0  0  0  0  0  0  0
  1  4  2  0  0  0  0
  2  1  1  0  0  0  0
  3  2  1  0  0  0  0
  4  5  1  0  0  0  0
  5 12  1  0  0  0  0
  6  7  1  0  0  0  0
  6  5  2  0  0  0  0
  8 13  1  0  0  0  0
  8  7  1  0  0  0  0
  8 15  1  0  0  0  0
  9  6  1  0  0  0  0
 10  9  2  0  0  0  0
 10  1  1  0  0  0  0
 11 18  1  0  0  0  0
 14  8  1  0  0  0  0
 16  9  1  0  0  0  0
 17 10  1  0  0  0  0
 19 18  1  0  0  0  0
 19 21  1  0  0  0  0
 20 19  2  0  0  0  0
 21 24  1  0  0  0  0
 22 21  1  0  0  0  0
 23 21  1  0  0  0  0
M  RAD  3   2   2   3   3   4   2
M  END
