Coordinates from ORCA-job 4-MeOPhN2+~CF3COO-_B3LYPG-6-31G_dp-CH-Scan-d09-49-n800
 OpenBabel11261919493D

 24 23  0  0  0  0  0  0  0  0999 V2000
   -2.0069    0.0399   -0.2038 C   0  0  0  0  0  0  0  0  0  0  0  0
   -3.3631   -0.1736   -0.2889 N   0  0  0  0  0  0  0  0  0  0  0  0
   -4.4741   -0.3044   -0.3491 N   0  0  0  0  0  0  0  0  0  0  0  0
   -1.6191    1.3718    0.0822 C   0  0  0  0  0  0  0  0  0  0  0  0
   -0.2238    1.4860    0.1523 C   0  0  0  0  0  0  0  0  0  0  0  0
    0.6605    0.4101   -0.0369 C   0  0  0  0  0  0  0  0  0  0  0  0
    1.9767    0.6954    0.0701 O   0  0  0  0  0  0  0  0  0  0  0  0
    2.9419   -0.3385   -0.0967 C   0  0  0  0  0  0  0  0  0  0  0  0
    0.1770   -0.8970   -0.3230 C   0  0  0  0  0  0  0  0  0  0  0  0
   -1.1812   -1.0957   -0.4100 C   0  0  0  0  0  0  0  0  0  0  0  0
   -3.1063    3.1082    0.3890 H   0  0  0  0  0  0  0  0  0  0  0  0
    0.2410    2.4472    0.3669 H   0  0  0  0  0  0  0  0  0  0  0  0
    3.9127    0.1373    0.0448 H   0  0  0  0  0  0  0  0  0  0  0  0
    2.8965   -0.7727   -1.1024 H   0  0  0  0  0  0  0  0  0  0  0  0
    2.8154   -1.1307    0.6507 H   0  0  0  0  0  0  0  0  0  0  0  0
    0.8537   -1.7286   -0.4717 H   0  0  0  0  0  0  0  0  0  0  0  0
   -1.5952   -2.0767   -0.6274 H   0  0  0  0  0  0  0  0  0  0  0  0
   -3.7340    3.8672    0.5227 O   0  0  0  0  0  0  0  0  0  0  0  0
   -4.9783    3.4337    0.4489 C   0  0  0  0  0  0  0  0  0  0  0  0
   -5.3620    2.3027    0.2515 O   0  0  0  0  0  0  0  0  0  0  0  0
   -5.9640    4.6078    0.6466 C   0  0  0  0  0  0  0  0  0  0  0  0
   -5.8122    5.5164   -0.3360 F   0  0  0  0  0  0  0  0  0  0  0  0
   -7.2270    4.1703    0.6273 F   0  0  0  0  0  0  0  0  0  0  0  0
   -5.7429    5.2225    1.8233 F   0  0  0  0  0  0  0  0  0  0  0  0
  1  4  2  0  0  0  0
  2  1  1  0  0  0  0
  3  2  1  0  0  0  0
  4  5  1  0  0  0  0
  5 12  1  0  0  0  0
  6  7  1  0  0  0  0
  6  5  2  0  0  0  0
  8 13  1  0  0  0  0
  8  7  1  0  0  0  0
  8 15  1  0  0  0  0
  9  6  1  0  0  0  0
 10  9  2  0  0  0  0
 10  1  1  0  0  0  0
 11 18  1  0  0  0  0
 14  8  1  0  0  0  0
 16  9  1  0  0  0  0
 17 10  1  0  0  0  0
 19 18  1  0  0  0  0
 19 21  1  0  0  0  0
 20 19  2  0  0  0  0
 21 24  1  0  0  0  0
 22 21  1  0  0  0  0
 23 21  1  0  0  0  0
M  RAD  3   2   2   3   3   4   2
M  END
