Coordinates from ORCA-job 4-MeOPhN2+~CF3COO-_B3LYPG-6-31G_dp-CH-Scan-d09-49-n800
 OpenBabel11261919493D

 24 23  0  0  0  0  0  0  0  0999 V2000
   -1.8424    0.0482   -0.1722 C   0  0  0  0  0  0  0  0  0  0  0  0
   -3.2101   -0.0966   -0.2344 N   0  0  0  0  0  0  0  0  0  0  0  0
   -4.3281   -0.1697   -0.2768 N   0  0  0  0  0  0  0  0  0  0  0  0
   -1.3989    1.3644    0.1034 C   0  0  0  0  0  0  0  0  0  0  0  0
    0.0042    1.4110    0.1472 C   0  0  0  0  0  0  0  0  0  0  0  0
    0.8348    0.2966   -0.0553 C   0  0  0  0  0  0  0  0  0  0  0  0
    2.1667    0.5210    0.0248 O   0  0  0  0  0  0  0  0  0  0  0  0
    3.0786   -0.5556   -0.1623 C   0  0  0  0  0  0  0  0  0  0  0  0
    0.2891   -0.9902   -0.3280 C   0  0  0  0  0  0  0  0  0  0  0  0
   -1.0775   -1.1285   -0.3899 C   0  0  0  0  0  0  0  0  0  0  0  0
   -3.3176    3.5859    0.5038 H   0  0  0  0  0  0  0  0  0  0  0  0
    0.5195    2.3499    0.3496 H   0  0  0  0  0  0  0  0  0  0  0  0
    4.0739   -0.1254   -0.0455 H   0  0  0  0  0  0  0  0  0  0  0  0
    2.9901   -0.9896   -1.1656 H   0  0  0  0  0  0  0  0  0  0  0  0
    2.9347   -1.3412    0.5892 H   0  0  0  0  0  0  0  0  0  0  0  0
    0.9264   -1.8509   -0.4855 H   0  0  0  0  0  0  0  0  0  0  0  0
   -1.5397   -2.0907   -0.5963 H   0  0  0  0  0  0  0  0  0  0  0  0
   -4.0239    4.2539    0.6047 O   0  0  0  0  0  0  0  0  0  0  0  0
   -5.2012    3.6510    0.4751 C   0  0  0  0  0  0  0  0  0  0  0  0
   -5.4049    2.4797    0.2702 O   0  0  0  0  0  0  0  0  0  0  0  0
   -6.3407    4.6823    0.6315 C   0  0  0  0  0  0  0  0  0  0  0  0
   -6.2114    5.6688   -0.2737 F   0  0  0  0  0  0  0  0  0  0  0  0
   -7.5271    4.0944    0.4565 F   0  0  0  0  0  0  0  0  0  0  0  0
   -6.3091    5.2299    1.8600 F   0  0  0  0  0  0  0  0  0  0  0  0
  1  4  2  0  0  0  0
  2  1  1  0  0  0  0
  3  2  1  0  0  0  0
  4  5  1  0  0  0  0
  5 12  1  0  0  0  0
  6  7  1  0  0  0  0
  6  5  2  0  0  0  0
  8 13  1  0  0  0  0
  8  7  1  0  0  0  0
  8 15  1  0  0  0  0
  9  6  1  0  0  0  0
 10  9  2  0  0  0  0
 10  1  1  0  0  0  0
 11 18  1  0  0  0  0
 14  8  1  0  0  0  0
 16  9  1  0  0  0  0
 17 10  1  0  0  0  0
 19 18  1  0  0  0  0
 19 21  1  0  0  0  0
 20 19  2  0  0  0  0
 21 24  1  0  0  0  0
 22 21  1  0  0  0  0
 23 21  1  0  0  0  0
M  RAD  3   2   2   3   3   4   2
M  END
