Coordinates from ORCA-job 4-MeOPhN2+~CF3COO-_B3LYPG-6-31G_dp-CH-Scan-d09-49-n800
 OpenBabel11261919493D

 24 23  0  0  0  0  0  0  0  0999 V2000
   -1.8749    0.0460   -0.1917 C   0  0  0  0  0  0  0  0  0  0  0  0
   -3.2404   -0.1123   -0.2642 N   0  0  0  0  0  0  0  0  0  0  0  0
   -4.3571   -0.1969   -0.3150 N   0  0  0  0  0  0  0  0  0  0  0  0
   -1.4439    1.3657    0.0863 C   0  0  0  0  0  0  0  0  0  0  0  0
   -0.0424    1.4264    0.1421 C   0  0  0  0  0  0  0  0  0  0  0  0
    0.8001    0.3193   -0.0523 C   0  0  0  0  0  0  0  0  0  0  0  0
    2.1287    0.5561    0.0399 O   0  0  0  0  0  0  0  0  0  0  0  0
    3.0525   -0.5124   -0.1364 C   0  0  0  0  0  0  0  0  0  0  0  0
    0.2682   -0.9721   -0.3291 C   0  0  0  0  0  0  0  0  0  0  0  0
   -1.0966   -1.1230   -0.4025 C   0  0  0  0  0  0  0  0  0  0  0  0
   -3.2776    3.4852    0.4597 H   0  0  0  0  0  0  0  0  0  0  0  0
    0.4619    2.3703    0.3484 H   0  0  0  0  0  0  0  0  0  0  0  0
    4.0424   -0.0729   -0.0087 H   0  0  0  0  0  0  0  0  0  0  0  0
    2.9790   -0.9475   -1.1403 H   0  0  0  0  0  0  0  0  0  0  0  0
    2.9073   -1.2985    0.6141 H   0  0  0  0  0  0  0  0  0  0  0  0
    0.9144   -1.8272   -0.4809 H   0  0  0  0  0  0  0  0  0  0  0  0
   -1.5480   -2.0894   -0.6124 H   0  0  0  0  0  0  0  0  0  0  0  0
   -3.9651    4.1729    0.5746 O   0  0  0  0  0  0  0  0  0  0  0  0
   -5.1608    3.6050    0.4749 C   0  0  0  0  0  0  0  0  0  0  0  0
   -5.4058    2.4395    0.2776 O   0  0  0  0  0  0  0  0  0  0  0  0
   -6.2657    4.6708    0.6475 C   0  0  0  0  0  0  0  0  0  0  0  0
   -6.1575    5.6150   -0.3053 F   0  0  0  0  0  0  0  0  0  0  0  0
   -7.4741    4.1092    0.5564 F   0  0  0  0  0  0  0  0  0  0  0  0
   -6.1594    5.2691    1.8477 F   0  0  0  0  0  0  0  0  0  0  0  0
  1  4  2  0  0  0  0
  2  1  1  0  0  0  0
  3  2  1  0  0  0  0
  4  5  1  0  0  0  0
  5 12  1  0  0  0  0
  6  7  1  0  0  0  0
  6  5  2  0  0  0  0
  8 13  1  0  0  0  0
  8  7  1  0  0  0  0
  8 15  1  0  0  0  0
  9  6  1  0  0  0  0
 10  9  2  0  0  0  0
 10  1  1  0  0  0  0
 11 18  1  0  0  0  0
 14  8  1  0  0  0  0
 16  9  1  0  0  0  0
 17 10  1  0  0  0  0
 19 18  1  0  0  0  0
 19 21  1  0  0  0  0
 20 19  2  0  0  0  0
 21 24  1  0  0  0  0
 22 21  1  0  0  0  0
 23 21  1  0  0  0  0
M  RAD  3   2   2   3   3   4   2
M  END
