Coordinates from ORCA-job 4-MeOPhN2+~CF3COO-_B3LYPG-6-31G_dp-CH-Scan-d09-49-n800
 OpenBabel11261919493D

 24 23  0  0  0  0  0  0  0  0999 V2000
   -1.8888    0.0446   -0.1960 C   0  0  0  0  0  0  0  0  0  0  0  0
   -3.2533   -0.1195   -0.2706 N   0  0  0  0  0  0  0  0  0  0  0  0
   -4.3695   -0.2088   -0.3230 N   0  0  0  0  0  0  0  0  0  0  0  0
   -1.4628    1.3659    0.0830 C   0  0  0  0  0  0  0  0  0  0  0  0
   -0.0619    1.4326    0.1418 C   0  0  0  0  0  0  0  0  0  0  0  0
    0.7854    0.3288   -0.0508 C   0  0  0  0  0  0  0  0  0  0  0  0
    2.1126    0.5709    0.0446 O   0  0  0  0  0  0  0  0  0  0  0  0
    3.0412   -0.4940   -0.1291 C   0  0  0  0  0  0  0  0  0  0  0  0
    0.2591   -0.9646   -0.3291 C   0  0  0  0  0  0  0  0  0  0  0  0
   -1.1050   -1.1208   -0.4053 C   0  0  0  0  0  0  0  0  0  0  0  0
   -3.2598    3.4456    0.4456 H   0  0  0  0  0  0  0  0  0  0  0  0
    0.4378    2.3785    0.3492 H   0  0  0  0  0  0  0  0  0  0  0  0
    4.0289   -0.0505    0.0016 H   0  0  0  0  0  0  0  0  0  0  0  0
    2.9723   -0.9293   -1.1332 H   0  0  0  0  0  0  0  0  0  0  0  0
    2.8968   -1.2807    0.6210 H   0  0  0  0  0  0  0  0  0  0  0  0
    0.9089   -1.8171   -0.4799 H   0  0  0  0  0  0  0  0  0  0  0  0
   -1.5520   -2.0890   -0.6165 H   0  0  0  0  0  0  0  0  0  0  0  0
   -3.9402    4.1409    0.5646 O   0  0  0  0  0  0  0  0  0  0  0  0
   -5.1424    3.5868    0.4725 C   0  0  0  0  0  0  0  0  0  0  0  0
   -5.4027    2.4242    0.2769 O   0  0  0  0  0  0  0  0  0  0  0  0
   -6.2343    4.6652    0.6507 C   0  0  0  0  0  0  0  0  0  0  0  0
   -6.1279    5.6009   -0.3108 F   0  0  0  0  0  0  0  0  0  0  0  0
   -7.4495    4.1159    0.5784 F   0  0  0  0  0  0  0  0  0  0  0  0
   -6.1076    5.2720    1.8447 F   0  0  0  0  0  0  0  0  0  0  0  0
  1  4  2  0  0  0  0
  2  1  1  0  0  0  0
  3  2  1  0  0  0  0
  4  5  1  0  0  0  0
  5 12  1  0  0  0  0
  6  7  1  0  0  0  0
  6  5  2  0  0  0  0
  8 13  1  0  0  0  0
  8  7  1  0  0  0  0
  8 15  1  0  0  0  0
  9  6  1  0  0  0  0
 10  9  2  0  0  0  0
 10  1  1  0  0  0  0
 11 18  1  0  0  0  0
 14  8  1  0  0  0  0
 16  9  1  0  0  0  0
 17 10  1  0  0  0  0
 19 18  1  0  0  0  0
 19 21  1  0  0  0  0
 20 19  2  0  0  0  0
 21 24  1  0  0  0  0
 22 21  1  0  0  0  0
 23 21  1  0  0  0  0
M  RAD  3   2   2   3   3   4   2
M  END
