Coordinates from ORCA-job 4-MeOPhN2+~CF3COO-_B3LYPG-6-31G_dp-CH-Scan-d09-49-n800
 OpenBabel11261919493D

 24 23  0  0  0  0  0  0  0  0999 V2000
   -2.1814    0.0536   -0.2206 C   0  0  0  0  0  0  0  0  0  0  0  0
   -3.5288   -0.2044   -0.3219 N   0  0  0  0  0  0  0  0  0  0  0  0
   -4.6421   -0.3022   -0.3786 N   0  0  0  0  0  0  0  0  0  0  0  0
   -1.8229    1.3922    0.0589 C   0  0  0  0  0  0  0  0  0  0  0  0
   -0.4459    1.5790    0.1513 C   0  0  0  0  0  0  0  0  0  0  0  0
    0.4828    0.5341   -0.0178 C   0  0  0  0  0  0  0  0  0  0  0  0
    1.7797    0.8739    0.1040 O   0  0  0  0  0  0  0  0  0  0  0  0
    2.7914   -0.1207   -0.0437 C   0  0  0  0  0  0  0  0  0  0  0  0
    0.0487   -0.7877   -0.2989 C   0  0  0  0  0  0  0  0  0  0  0  0
   -1.3020   -1.0382   -0.4032 C   0  0  0  0  0  0  0  0  0  0  0  0
   -2.7927    2.5154    0.2458 H   0  0  0  0  0  0  0  0  0  0  0  0
   -0.0389    2.5645    0.3648 H   0  0  0  0  0  0  0  0  0  0  0  0
    3.7382    0.3983    0.1049 H   0  0  0  0  0  0  0  0  0  0  0  0
    2.7737   -0.5622   -1.0465 H   0  0  0  0  0  0  0  0  0  0  0  0
    2.6878   -0.9101    0.7096 H   0  0  0  0  0  0  0  0  0  0  0  0
    0.7560   -1.5960   -0.4319 H   0  0  0  0  0  0  0  0  0  0  0  0
   -1.6743   -2.0356   -0.6175 H   0  0  0  0  0  0  0  0  0  0  0  0
   -3.4643    3.4638    0.4101 O   0  0  0  0  0  0  0  0  0  0  0  0
   -4.7271    3.2046    0.4073 C   0  0  0  0  0  0  0  0  0  0  0  0
   -5.2999    2.1320    0.2437 O   0  0  0  0  0  0  0  0  0  0  0  0
   -5.5713    4.4828    0.6474 C   0  0  0  0  0  0  0  0  0  0  0  0
   -5.3651    5.3807   -0.3399 F   0  0  0  0  0  0  0  0  0  0  0  0
   -6.8838    4.2102    0.6889 F   0  0  0  0  0  0  0  0  0  0  0  0
   -5.2325    5.0707    1.8140 F   0  0  0  0  0  0  0  0  0  0  0  0
  1  4  2  0  0  0  0
  2  1  1  0  0  0  0
  3  2  1  0  0  0  0
  4  5  1  0  0  0  0
  5 12  1  0  0  0  0
  6  7  1  0  0  0  0
  6  5  2  0  0  0  0
  8  7  1  0  0  0  0
  8 13  1  0  0  0  0
  8 15  1  0  0  0  0
  9  6  1  0  0  0  0
 10  9  2  0  0  0  0
 10  1  1  0  0  0  0
 11 18  1  0  0  0  0
 14  8  1  0  0  0  0
 16  9  1  0  0  0  0
 17 10  1  0  0  0  0
 19 18  1  0  0  0  0
 19 21  1  0  0  0  0
 20 19  2  0  0  0  0
 21 23  1  0  0  0  0
 21 24  1  0  0  0  0
 22 21  1  0  0  0  0
M  RAD  3   2   2   3   3   4   2
M  END
