Coordinates from ORCA-job 4-MeOPhN2+~CF3COO-_B3LYPG-6-31G_dp-CH-Scan-d09-49-n800
 OpenBabel11261919493D

 24 23  0  0  0  0  0  0  0  0999 V2000
   -1.4899    0.1264   -0.2723 C   0  0  0  0  0  0  0  0  0  0  0  0
   -2.8664    0.1493   -0.3532 N   0  0  0  0  0  0  0  0  0  0  0  0
   -3.9851    0.2242   -0.4021 N   0  0  0  0  0  0  0  0  0  0  0  0
   -0.9129    1.4002   -0.0553 C   0  0  0  0  0  0  0  0  0  0  0  0
    0.4889    1.2816    0.0135 C   0  0  0  0  0  0  0  0  0  0  0  0
    1.1871    0.0713   -0.1152 C   0  0  0  0  0  0  0  0  0  0  0  0
    2.5375    0.1436   -0.0207 O   0  0  0  0  0  0  0  0  0  0  0  0
    3.3185   -1.0397   -0.1346 C   0  0  0  0  0  0  0  0  0  0  0  0
    0.5015   -1.1595   -0.3332 C   0  0  0  0  0  0  0  0  0  0  0  0
   -0.8706   -1.1443   -0.4158 C   0  0  0  0  0  0  0  0  0  0  0  0
   -3.8509    4.6269    0.5021 H   0  0  0  0  0  0  0  0  0  0  0  0
    1.1094    2.1637    0.1778 H   0  0  0  0  0  0  0  0  0  0  0  0
    4.3565   -0.7234   -0.0220 H   0  0  0  0  0  0  0  0  0  0  0  0
    3.1922   -1.5152   -1.1153 H   0  0  0  0  0  0  0  0  0  0  0  0
    3.0745   -1.7621    0.6538 H   0  0  0  0  0  0  0  0  0  0  0  0
    1.0400   -2.0934   -0.4344 H   0  0  0  0  0  0  0  0  0  0  0  0
   -1.4389   -2.0565   -0.5824 H   0  0  0  0  0  0  0  0  0  0  0  0
   -4.7140    5.0496    0.6528 O   0  0  0  0  0  0  0  0  0  0  0  0
   -5.6567    4.1095    0.5314 C   0  0  0  0  0  0  0  0  0  0  0  0
   -5.4820    2.9454    0.2803 O   0  0  0  0  0  0  0  0  0  0  0  0
   -7.0505    4.7315    0.7650 C   0  0  0  0  0  0  0  0  0  0  0  0
   -7.2747    5.7204   -0.1177 F   0  0  0  0  0  0  0  0  0  0  0  0
   -7.9996    3.8045    0.6225 F   0  0  0  0  0  0  0  0  0  0  0  0
   -7.1285    5.2445    2.0054 F   0  0  0  0  0  0  0  0  0  0  0  0
  1  4  2  0  0  0  0
  2  1  1  0  0  0  0
  3  2  1  0  0  0  0
  4  5  1  0  0  0  0
  5 12  1  0  0  0  0
  6  7  1  0  0  0  0
  6  5  2  0  0  0  0
  8 13  1  0  0  0  0
  8  7  1  0  0  0  0
  8 15  1  0  0  0  0
  9  6  1  0  0  0  0
 10  9  2  0  0  0  0
 10  1  1  0  0  0  0
 11 18  1  0  0  0  0
 14  8  1  0  0  0  0
 16  9  1  0  0  0  0
 17 10  1  0  0  0  0
 19 18  1  0  0  0  0
 19 21  1  0  0  0  0
 20 19  2  0  0  0  0
 21 24  1  0  0  0  0
 22 21  1  0  0  0  0
 23 21  1  0  0  0  0
M  RAD  3   2   2   3   3   4   2
M  END
