Coordinates from ORCA-job 4-MeOPhN2+~CF3COO-_B3LYPG-6-31G_dp-CH-Scan-d09-49-n800
 OpenBabel11261919493D

 24 23  0  0  0  0  0  0  0  0999 V2000
   -1.9588    0.0410   -0.2028 C   0  0  0  0  0  0  0  0  0  0  0  0
   -3.3186   -0.1523   -0.2837 N   0  0  0  0  0  0  0  0  0  0  0  0
   -4.4318   -0.2672   -0.3405 N   0  0  0  0  0  0  0  0  0  0  0  0
   -1.5558    1.3687    0.0800 C   0  0  0  0  0  0  0  0  0  0  0  0
   -0.1582    1.4643    0.1463 C   0  0  0  0  0  0  0  0  0  0  0  0
    0.7115    0.3769   -0.0432 C   0  0  0  0  0  0  0  0  0  0  0  0
    2.0322    0.6449    0.0602 O   0  0  0  0  0  0  0  0  0  0  0  0
    2.9830   -0.4018   -0.1076 C   0  0  0  0  0  0  0  0  0  0  0  0
    0.2109   -0.9250   -0.3261 C   0  0  0  0  0  0  0  0  0  0  0  0
   -1.1497   -1.1069   -0.4096 C   0  0  0  0  0  0  0  0  0  0  0  0
   -3.1690    3.2461    0.4090 H   0  0  0  0  0  0  0  0  0  0  0  0
    0.3207    2.4195    0.3579 H   0  0  0  0  0  0  0  0  0  0  0  0
    3.9606    0.0610    0.0307 H   0  0  0  0  0  0  0  0  0  0  0  0
    2.9296   -0.8370   -1.1126 H   0  0  0  0  0  0  0  0  0  0  0  0
    2.8481   -1.1916    0.6410 H   0  0  0  0  0  0  0  0  0  0  0  0
    0.8771   -1.7651   -0.4751 H   0  0  0  0  0  0  0  0  0  0  0  0
   -1.5767   -2.0830   -0.6245 H   0  0  0  0  0  0  0  0  0  0  0  0
   -3.8167    3.9791    0.5374 O   0  0  0  0  0  0  0  0  0  0  0  0
   -5.0459    3.4959    0.4587 C   0  0  0  0  0  0  0  0  0  0  0  0
   -5.3799    2.3506    0.2624 O   0  0  0  0  0  0  0  0  0  0  0  0
   -6.0750    4.6327    0.6505 C   0  0  0  0  0  0  0  0  0  0  0  0
   -5.9451    5.5500   -0.3266 F   0  0  0  0  0  0  0  0  0  0  0  0
   -7.3201    4.1491    0.6162 F   0  0  0  0  0  0  0  0  0  0  0  0
   -5.8871    5.2485    1.8322 F   0  0  0  0  0  0  0  0  0  0  0  0
  1  4  2  0  0  0  0
  2  1  1  0  0  0  0
  3  2  1  0  0  0  0
  4  5  1  0  0  0  0
  5 12  1  0  0  0  0
  6  7  1  0  0  0  0
  6  5  2  0  0  0  0
  8 13  1  0  0  0  0
  8  7  1  0  0  0  0
  8 15  1  0  0  0  0
  9  6  1  0  0  0  0
 10  9  2  0  0  0  0
 10  1  1  0  0  0  0
 11 18  1  0  0  0  0
 14  8  1  0  0  0  0
 16  9  1  0  0  0  0
 17 10  1  0  0  0  0
 19 18  1  0  0  0  0
 19 21  1  0  0  0  0
 20 19  2  0  0  0  0
 21 24  1  0  0  0  0
 22 21  1  0  0  0  0
 23 21  1  0  0  0  0
M  RAD  3   2   2   3   3   4   2
M  END
