Coordinates from ORCA-job 4-MeOPhN2+~CF3COO-_B3LYPG-6-31G_dp-CH-Scan-d09-49-n800
 OpenBabel11261919493D

 24 23  0  0  0  0  0  0  0  0999 V2000
   -2.3012    0.4816    0.3453 C   0  0  0  0  0  0  0  0  0  0  0  0
   -3.7006    0.3046    0.4163 N   0  0  0  0  0  0  0  0  0  0  0  0
   -4.5551   -0.4268    0.3089 N   0  0  0  0  0  0  0  0  0  0  0  0
   -1.6731    1.6272    0.8482 C   0  0  0  0  0  0  0  0  0  0  0  0
   -0.2944    1.7029    0.7683 C   0  0  0  0  0  0  0  0  0  0  0  0
    0.4555    0.6624    0.1871 C   0  0  0  0  0  0  0  0  0  0  0  0
    1.7889    0.8517    0.1572 O   0  0  0  0  0  0  0  0  0  0  0  0
    2.6211   -0.1475   -0.4299 C   0  0  0  0  0  0  0  0  0  0  0  0
   -0.1969   -0.4797   -0.3141 C   0  0  0  0  0  0  0  0  0  0  0  0
   -1.5785   -0.5723   -0.2303 C   0  0  0  0  0  0  0  0  0  0  0  0
   -2.2236    2.3523    1.2499 H   0  0  0  0  0  0  0  0  0  0  0  0
    0.2343    2.5708    1.1462 H   0  0  0  0  0  0  0  0  0  0  0  0
    3.6396    0.2324   -0.3491 H   0  0  0  0  0  0  0  0  0  0  0  0
    2.3722   -0.3017   -1.4861 H   0  0  0  0  0  0  0  0  0  0  0  0
    2.5437   -1.0977    0.1109 H   0  0  0  0  0  0  0  0  0  0  0  0
    0.3594   -1.2906   -0.7667 H   0  0  0  0  0  0  0  0  0  0  0  0
   -2.0982   -1.4434   -0.6133 H   0  0  0  0  0  0  0  0  0  0  0  0
   -4.3655    2.2030    1.0454 O   0  0  0  0  0  0  0  0  0  0  0  0
   -4.6153    2.7825   -0.0735 C   0  0  0  0  0  0  0  0  0  0  0  0
   -4.3289    2.4154   -1.2097 O   0  0  0  0  0  0  0  0  0  0  0  0
   -5.3399    4.1447    0.1258 C   0  0  0  0  0  0  0  0  0  0  0  0
   -5.7768    4.6546   -1.0347 F   0  0  0  0  0  0  0  0  0  0  0  0
   -6.3971    4.0316    0.9538 F   0  0  0  0  0  0  0  0  0  0  0  0
   -4.4841    5.0407    0.6744 F   0  0  0  0  0  0  0  0  0  0  0  0
  1  2  1  0  0  0  0
  1  4  2  0  0  0  0
  3  2  2  0  0  0  0
  4 11  1  0  0  0  0
  5  4  1  0  0  0  0
  5 12  1  0  0  0  0
  6  5  2  0  0  0  0
  7  6  1  0  0  0  0
  8 13  1  0  0  0  0
  8 15  1  0  0  0  0
  8  7  1  0  0  0  0
  9 10  2  0  0  0  0
  9  6  1  0  0  0  0
 10  1  1  0  0  0  0
 14  8  1  0  0  0  0
 16  9  1  0  0  0  0
 17 10  1  0  0  0  0
 19 21  1  0  0  0  0
 19 18  1  0  0  0  0
 20 19  2  0  0  0  0
 21 24  1  0  0  0  0
 21 23  1  0  0  0  0
 22 21  1  0  0  0  0
M  RAD  2   3   2  18   2
M  END
