Coordinates from ORCA-job 4-MeOPhN2+~CF3COO-_B3LYPG-6-31G_dp-CH-Scan-d09-49-n800
 OpenBabel11261919493D

 24 23  0  0  0  0  0  0  0  0999 V2000
   -2.2304    0.3461   -0.3486 C   0  0  0  0  0  0  0  0  0  0  0  0
   -3.5811    0.1135   -0.5464 N   0  0  0  0  0  0  0  0  0  0  0  0
   -4.5704   -0.3418   -0.8045 N   0  0  0  0  0  0  0  0  0  0  0  0
   -1.7140    1.6478   -0.1905 C   0  0  0  0  0  0  0  0  0  0  0  0
   -0.3376    1.7297   -0.0512 C   0  0  0  0  0  0  0  0  0  0  0  0
    0.4886    0.5893   -0.0555 C   0  0  0  0  0  0  0  0  0  0  0  0
    1.8046    0.8161    0.0999 O   0  0  0  0  0  0  0  0  0  0  0  0
    2.7140   -0.2837    0.1210 C   0  0  0  0  0  0  0  0  0  0  0  0
   -0.0722   -0.7000   -0.2157 C   0  0  0  0  0  0  0  0  0  0  0  0
   -1.4375   -0.8256   -0.3687 C   0  0  0  0  0  0  0  0  0  0  0  0
   -2.5107    2.7178   -0.1265 H   0  0  0  0  0  0  0  0  0  0  0  0
    0.1423    2.6953    0.0772 H   0  0  0  0  0  0  0  0  0  0  0  0
    3.7014    0.1540    0.2658 H   0  0  0  0  0  0  0  0  0  0  0  0
    2.6953   -0.8331   -0.8272 H   0  0  0  0  0  0  0  0  0  0  0  0
    2.4930   -0.9660    0.9494 H   0  0  0  0  0  0  0  0  0  0  0  0
    0.5471   -1.5878   -0.2230 H   0  0  0  0  0  0  0  0  0  0  0  0
   -1.8942   -1.8016   -0.5001 H   0  0  0  0  0  0  0  0  0  0  0  0
   -3.4109    3.7881    0.0633 O   0  0  0  0  0  0  0  0  0  0  0  0
   -4.4767    3.2242    0.4515 C   0  0  0  0  0  0  0  0  0  0  0  0
   -4.7098    2.0078    0.5622 O   0  0  0  0  0  0  0  0  0  0  0  0
   -5.6214    4.2134    0.8000 C   0  0  0  0  0  0  0  0  0  0  0  0
   -6.0752    4.8156   -0.3224 F   0  0  0  0  0  0  0  0  0  0  0  0
   -6.6656    3.5998    1.3832 F   0  0  0  0  0  0  0  0  0  0  0  0
   -5.1932    5.1800    1.6372 F   0  0  0  0  0  0  0  0  0  0  0  0
  1  4  1  0  0  0  0
  2  1  1  0  0  0  0
  3  2  1  0  0  0  0
  4 11  1  0  0  0  0
  4  5  2  0  0  0  0
  5 12  1  0  0  0  0
  6  5  1  0  0  0  0
  6  7  1  0  0  0  0
  7  8  1  0  0  0  0
  8 13  1  0  0  0  0
  8 15  1  0  0  0  0
  9  6  2  0  0  0  0
 10  1  2  0  0  0  0
 10  9  1  0  0  0  0
 14  8  1  0  0  0  0
 16  9  1  0  0  0  0
 17 10  1  0  0  0  0
 18 19  2  0  0  0  0
 19 20  1  0  0  0  0
 19 21  1  0  0  0  0
 21 23  1  0  0  0  0
 21 24  1  0  0  0  0
 22 21  1  0  0  0  0
M  RAD  3   2   2   3   3  20   2
M  END
