Coordinates from ORCA-job 4-MeOPhN2+~CF3COO-_B3LYPG-6-31G_dp-CH-Scan-d09-49-n800
 OpenBabel11261919493D

 24 23  0  0  0  0  0  0  0  0999 V2000
   -2.0884    0.0376   -0.2066 C   0  0  0  0  0  0  0  0  0  0  0  0
   -3.4378   -0.2096   -0.2997 N   0  0  0  0  0  0  0  0  0  0  0  0
   -4.5451   -0.3621   -0.3649 N   0  0  0  0  0  0  0  0  0  0  0  0
   -1.7258    1.3761    0.0827 C   0  0  0  0  0  0  0  0  0  0  0  0
   -0.3356    1.5223    0.1599 C   0  0  0  0  0  0  0  0  0  0  0  0
    0.5736    0.4660   -0.0265 C   0  0  0  0  0  0  0  0  0  0  0  0
    1.8811    0.7810    0.0865 O   0  0  0  0  0  0  0  0  0  0  0  0
    2.8710   -0.2307   -0.0771 C   0  0  0  0  0  0  0  0  0  0  0  0
    0.1190   -0.8498   -0.3159 C   0  0  0  0  0  0  0  0  0  0  0  0
   -1.2345   -1.0767   -0.4092 C   0  0  0  0  0  0  0  0  0  0  0  0
   -2.9958    2.8738    0.3469 H   0  0  0  0  0  0  0  0  0  0  0  0
    0.1044    2.4939    0.3779 H   0  0  0  0  0  0  0  0  0  0  0  0
    3.8297    0.2675    0.0685 H   0  0  0  0  0  0  0  0  0  0  0  0
    2.8389   -0.6646   -1.0833 H   0  0  0  0  0  0  0  0  0  0  0  0
    2.7592   -1.0257    0.6695 H   0  0  0  0  0  0  0  0  0  0  0  0
    0.8134   -1.6671   -0.4625 H   0  0  0  0  0  0  0  0  0  0  0  0
   -1.6263   -2.0659   -0.6293 H   0  0  0  0  0  0  0  0  0  0  0  0
   -3.5991    3.6813    0.4898 O   0  0  0  0  0  0  0  0  0  0  0  0
   -4.8626    3.3308    0.4322 C   0  0  0  0  0  0  0  0  0  0  0  0
   -5.3291    2.2267    0.2395 O   0  0  0  0  0  0  0  0  0  0  0  0
   -5.7746    4.5621    0.6414 C   0  0  0  0  0  0  0  0  0  0  0  0
   -5.5850    5.4602   -0.3455 F   0  0  0  0  0  0  0  0  0  0  0  0
   -7.0639    4.2046    0.6426 F   0  0  0  0  0  0  0  0  0  0  0  0
   -5.5013    5.1668    1.8133 F   0  0  0  0  0  0  0  0  0  0  0  0
  1  4  2  0  0  0  0
  2  1  1  0  0  0  0
  3  2  1  0  0  0  0
  4  5  1  0  0  0  0
  5 12  1  0  0  0  0
  6  7  1  0  0  0  0
  6  5  2  0  0  0  0
  8 13  1  0  0  0  0
  8  7  1  0  0  0  0
  8 15  1  0  0  0  0
  9  6  1  0  0  0  0
 10  9  2  0  0  0  0
 10  1  1  0  0  0  0
 11 18  1  0  0  0  0
 14  8  1  0  0  0  0
 16  9  1  0  0  0  0
 17 10  1  0  0  0  0
 19 18  1  0  0  0  0
 19 21  1  0  0  0  0
 20 19  2  0  0  0  0
 21 23  1  0  0  0  0
 21 24  1  0  0  0  0
 22 21  1  0  0  0  0
M  RAD  3   2   2   3   3   4   2
M  END
