Coordinates from ORCA-job 4-MeOPhN2+~CF3COO-_B3LYPG-6-31G_dp-CH-Scan-d09-49-n800
 OpenBabel11261919493D

 24 23  0  0  0  0  0  0  0  0999 V2000
   -1.4333    0.1468   -0.2601 C   0  0  0  0  0  0  0  0  0  0  0  0
   -2.8097    0.1990   -0.3305 N   0  0  0  0  0  0  0  0  0  0  0  0
   -3.9264    0.3014   -0.3801 N   0  0  0  0  0  0  0  0  0  0  0  0
   -0.8292    1.4101   -0.0567 C   0  0  0  0  0  0  0  0  0  0  0  0
    0.5705    1.2632    0.0019 C   0  0  0  0  0  0  0  0  0  0  0  0
    1.2427    0.0382   -0.1246 C   0  0  0  0  0  0  0  0  0  0  0  0
    2.5952    0.0837   -0.0426 O   0  0  0  0  0  0  0  0  0  0  0  0
    3.3512   -1.1156   -0.1581 C   0  0  0  0  0  0  0  0  0  0  0  0
    0.5304   -1.1799   -0.3280 C   0  0  0  0  0  0  0  0  0  0  0  0
   -0.8418   -1.1374   -0.3994 C   0  0  0  0  0  0  0  0  0  0  0  0
   -3.9471    4.7631    0.5570 H   0  0  0  0  0  0  0  0  0  0  0  0
    1.2102    2.1336    0.1552 H   0  0  0  0  0  0  0  0  0  0  0  0
    4.3964   -0.8195   -0.0583 H   0  0  0  0  0  0  0  0  0  0  0  0
    3.2051   -1.5938   -1.1347 H   0  0  0  0  0  0  0  0  0  0  0  0
    3.1015   -1.8289    0.6368 H   0  0  0  0  0  0  0  0  0  0  0  0
    1.0490   -2.1253   -0.4265 H   0  0  0  0  0  0  0  0  0  0  0  0
   -1.4300   -2.0389   -0.5542 H   0  0  0  0  0  0  0  0  0  0  0  0
   -4.8294    5.1500    0.6919 O   0  0  0  0  0  0  0  0  0  0  0  0
   -5.7299    4.1721    0.5460 C   0  0  0  0  0  0  0  0  0  0  0  0
   -5.5008    3.0179    0.2934 O   0  0  0  0  0  0  0  0  0  0  0  0
   -7.1529    4.7345    0.7526 C   0  0  0  0  0  0  0  0  0  0  0  0
   -7.3992    5.7180   -0.1300 F   0  0  0  0  0  0  0  0  0  0  0  0
   -8.0591    3.7696    0.5858 F   0  0  0  0  0  0  0  0  0  0  0  0
   -7.2779    5.2368    1.9936 F   0  0  0  0  0  0  0  0  0  0  0  0
  1  4  2  0  0  0  0
  2  1  1  0  0  0  0
  3  2  1  0  0  0  0
  4  5  1  0  0  0  0
  5 12  1  0  0  0  0
  6  7  1  0  0  0  0
  6  5  2  0  0  0  0
  8 13  1  0  0  0  0
  8  7  1  0  0  0  0
  8 15  1  0  0  0  0
  9  6  1  0  0  0  0
 10  9  2  0  0  0  0
 10  1  1  0  0  0  0
 11 18  1  0  0  0  0
 14  8  1  0  0  0  0
 16  9  1  0  0  0  0
 17 10  1  0  0  0  0
 19 18  1  0  0  0  0
 19 21  1  0  0  0  0
 20 19  2  0  0  0  0
 21 24  1  0  0  0  0
 22 21  1  0  0  0  0
 23 21  1  0  0  0  0
M  RAD  3   2   2   3   3   4   2
M  END
