Coordinates from ORCA-job 4-MeOPhN2+~CF3COO-_B3LYPG-6-31G_dp-CH-Scan-d09-49-n800
 OpenBabel11261919493D

 24 23  0  0  0  0  0  0  0  0999 V2000
   -2.0208    0.0394   -0.2040 C   0  0  0  0  0  0  0  0  0  0  0  0
   -3.3758   -0.1799   -0.2905 N   0  0  0  0  0  0  0  0  0  0  0  0
   -4.4862   -0.3149   -0.3516 N   0  0  0  0  0  0  0  0  0  0  0  0
   -1.6375    1.3724    0.0829 C   0  0  0  0  0  0  0  0  0  0  0  0
   -0.2429    1.4921    0.1541 C   0  0  0  0  0  0  0  0  0  0  0  0
    0.6457    0.4196   -0.0350 C   0  0  0  0  0  0  0  0  0  0  0  0
    1.9604    0.7101    0.0730 O   0  0  0  0  0  0  0  0  0  0  0  0
    2.9299   -0.3200   -0.0936 C   0  0  0  0  0  0  0  0  0  0  0  0
    0.1672   -0.8890   -0.3220 C   0  0  0  0  0  0  0  0  0  0  0  0
   -1.1902   -1.0925   -0.4101 C   0  0  0  0  0  0  0  0  0  0  0  0
   -3.0881    3.0682    0.3830 H   0  0  0  0  0  0  0  0  0  0  0  0
    0.2178    2.4551    0.3695 H   0  0  0  0  0  0  0  0  0  0  0  0
    3.8988    0.1596    0.0487 H   0  0  0  0  0  0  0  0  0  0  0  0
    2.8868   -0.7540   -1.0995 H   0  0  0  0  0  0  0  0  0  0  0  0
    2.8060   -1.1130    0.6534 H   0  0  0  0  0  0  0  0  0  0  0  0
    0.8470   -1.7181   -0.4706 H   0  0  0  0  0  0  0  0  0  0  0  0
   -1.6004   -2.0750   -0.6281 H   0  0  0  0  0  0  0  0  0  0  0  0
   -3.7105    3.8349    0.5180 O   0  0  0  0  0  0  0  0  0  0  0  0
   -4.9588    3.4159    0.4461 C   0  0  0  0  0  0  0  0  0  0  0  0
   -5.3569    2.2893    0.2489 O   0  0  0  0  0  0  0  0  0  0  0  0
   -5.9318    4.6004    0.6454 C   0  0  0  0  0  0  0  0  0  0  0  0
   -5.7734    5.5067   -0.3385 F   0  0  0  0  0  0  0  0  0  0  0  0
   -7.1996    4.1767    0.6301 F   0  0  0  0  0  0  0  0  0  0  0  0
   -5.7012    5.2144    1.8209 F   0  0  0  0  0  0  0  0  0  0  0  0
  1  4  2  0  0  0  0
  2  1  1  0  0  0  0
  3  2  1  0  0  0  0
  4  5  1  0  0  0  0
  5 12  1  0  0  0  0
  6  7  1  0  0  0  0
  6  5  2  0  0  0  0
  8 13  1  0  0  0  0
  8  7  1  0  0  0  0
  8 15  1  0  0  0  0
  9  6  1  0  0  0  0
 10  9  2  0  0  0  0
 10  1  1  0  0  0  0
 11 18  1  0  0  0  0
 14  8  1  0  0  0  0
 16  9  1  0  0  0  0
 17 10  1  0  0  0  0
 19 18  1  0  0  0  0
 19 21  1  0  0  0  0
 20 19  2  0  0  0  0
 21 24  1  0  0  0  0
 22 21  1  0  0  0  0
 23 21  1  0  0  0  0
M  RAD  3   2   2   3   3   4   2
M  END
