Coordinates from ORCA-job 4-MeOPhN2+~CF3COO-_B3LYPG-6-31G_dp-CH-Scan-d09-49-n800
 OpenBabel11261919493D

 24 23  0  0  0  0  0  0  0  0999 V2000
   -1.5556    0.1097   -0.2767 C   0  0  0  0  0  0  0  0  0  0  0  0
   -2.9317    0.1015   -0.3631 N   0  0  0  0  0  0  0  0  0  0  0  0
   -4.0510    0.1518   -0.4256 N   0  0  0  0  0  0  0  0  0  0  0  0
   -1.0065    1.3943   -0.0495 C   0  0  0  0  0  0  0  0  0  0  0  0
    0.3969    1.3056    0.0254 C   0  0  0  0  0  0  0  0  0  0  0  0
    1.1219    0.1113   -0.1063 C   0  0  0  0  0  0  0  0  0  0  0  0
    2.4696    0.2120   -0.0033 O   0  0  0  0  0  0  0  0  0  0  0  0
    3.2763   -0.9542   -0.1168 C   0  0  0  0  0  0  0  0  0  0  0  0
    0.4641   -1.1324   -0.3355 C   0  0  0  0  0  0  0  0  0  0  0  0
   -0.9077   -1.1460   -0.4250 C   0  0  0  0  0  0  0  0  0  0  0  0
   -3.7387    4.4652    0.4780 H   0  0  0  0  0  0  0  0  0  0  0  0
    0.9975    2.1999    0.1979 H   0  0  0  0  0  0  0  0  0  0  0  0
    4.3064   -0.6167    0.0054 H   0  0  0  0  0  0  0  0  0  0  0  0
    3.1675   -1.4273   -1.1006 H   0  0  0  0  0  0  0  0  0  0  0  0
    3.0413   -1.6852    0.6663 H   0  0  0  0  0  0  0  0  0  0  0  0
    1.0228   -2.0540   -0.4398 H   0  0  0  0  0  0  0  0  0  0  0  0
   -1.4553   -2.0691   -0.6004 H   0  0  0  0  0  0  0  0  0  0  0  0
   -4.5803    4.9266    0.6363 O   0  0  0  0  0  0  0  0  0  0  0  0
   -5.5668    4.0329    0.5191 C   0  0  0  0  0  0  0  0  0  0  0  0
   -5.4504    2.8627    0.2621 O   0  0  0  0  0  0  0  0  0  0  0  0
   -6.9281    4.7193    0.7646 C   0  0  0  0  0  0  0  0  0  0  0  0
   -7.1179    5.7105   -0.1238 F   0  0  0  0  0  0  0  0  0  0  0  0
   -7.9200    3.8353    0.6404 F   0  0  0  0  0  0  0  0  0  0  0  0
   -6.9687    5.2449    2.0013 F   0  0  0  0  0  0  0  0  0  0  0  0
  1  4  2  0  0  0  0
  2  1  1  0  0  0  0
  3  2  1  0  0  0  0
  4  5  1  0  0  0  0
  5 12  1  0  0  0  0
  6  7  1  0  0  0  0
  6  5  2  0  0  0  0
  8  7  1  0  0  0  0
  8 13  1  0  0  0  0
  8 15  1  0  0  0  0
  9  6  1  0  0  0  0
 10  9  2  0  0  0  0
 10  1  1  0  0  0  0
 11 18  1  0  0  0  0
 14  8  1  0  0  0  0
 16  9  1  0  0  0  0
 17 10  1  0  0  0  0
 19 18  1  0  0  0  0
 19 21  1  0  0  0  0
 20 19  2  0  0  0  0
 21 24  1  0  0  0  0
 22 21  1  0  0  0  0
 23 21  1  0  0  0  0
M  RAD  3   2   2   3   3   4   2
M  END
