Coordinates from ORCA-job 4-MeOPhN2+~CF3COO-_B3LYPG-6-31G_dp-CH-Scan-d09-49-n800
 OpenBabel11261919493D

 24 23  0  0  0  0  0  0  0  0999 V2000
   -1.5504    0.1106   -0.2769 C   0  0  0  0  0  0  0  0  0  0  0  0
   -2.9266    0.1047   -0.3629 N   0  0  0  0  0  0  0  0  0  0  0  0
   -4.0459    0.1569   -0.4253 N   0  0  0  0  0  0  0  0  0  0  0  0
   -0.9994    1.3946   -0.0511 C   0  0  0  0  0  0  0  0  0  0  0  0
    0.4040    1.3037    0.0235 C   0  0  0  0  0  0  0  0  0  0  0  0
    1.1270    0.1081   -0.1072 C   0  0  0  0  0  0  0  0  0  0  0  0
    2.4750    0.2068   -0.0049 O   0  0  0  0  0  0  0  0  0  0  0  0
    3.2798   -0.9607   -0.1176 C   0  0  0  0  0  0  0  0  0  0  0  0
    0.4672   -1.1347   -0.3350 C   0  0  0  0  0  0  0  0  0  0  0  0
   -0.9046   -1.1464   -0.4241 C   0  0  0  0  0  0  0  0  0  0  0  0
   -3.7476    4.4778    0.4789 H   0  0  0  0  0  0  0  0  0  0  0  0
    1.0060    2.1972    0.1949 H   0  0  0  0  0  0  0  0  0  0  0  0
    4.3105   -0.6247    0.0037 H   0  0  0  0  0  0  0  0  0  0  0  0
    3.1698   -1.4345   -1.1010 H   0  0  0  0  0  0  0  0  0  0  0  0
    3.0441   -1.6907    0.6662 H   0  0  0  0  0  0  0  0  0  0  0  0
    1.0245   -2.0573   -0.4385 H   0  0  0  0  0  0  0  0  0  0  0  0
   -1.4537   -2.0687   -0.5984 H   0  0  0  0  0  0  0  0  0  0  0  0
   -4.5907    4.9363    0.6369 O   0  0  0  0  0  0  0  0  0  0  0  0
   -5.5742    4.0391    0.5198 C   0  0  0  0  0  0  0  0  0  0  0  0
   -5.4535    2.8692    0.2632 O   0  0  0  0  0  0  0  0  0  0  0  0
   -6.9379    4.7207    0.7654 C   0  0  0  0  0  0  0  0  0  0  0  0
   -7.1299    5.7134   -0.1209 F   0  0  0  0  0  0  0  0  0  0  0  0
   -7.9268    3.8339    0.6381 F   0  0  0  0  0  0  0  0  0  0  0  0
   -6.9812    5.2433    2.0033 F   0  0  0  0  0  0  0  0  0  0  0  0
  1  4  2  0  0  0  0
  2  1  1  0  0  0  0
  3  2  1  0  0  0  0
  4  5  1  0  0  0  0
  5 12  1  0  0  0  0
  6  7  1  0  0  0  0
  6  5  2  0  0  0  0
  8  7  1  0  0  0  0
  8 13  1  0  0  0  0
  8 15  1  0  0  0  0
  9  6  1  0  0  0  0
 10  9  2  0  0  0  0
 10  1  1  0  0  0  0
 11 18  1  0  0  0  0
 14  8  1  0  0  0  0
 16  9  1  0  0  0  0
 17 10  1  0  0  0  0
 19 18  1  0  0  0  0
 19 21  1  0  0  0  0
 20 19  2  0  0  0  0
 21 24  1  0  0  0  0
 22 21  1  0  0  0  0
 23 21  1  0  0  0  0
M  RAD  3   2   2   3   3   4   2
M  END
