Coordinates from ORCA-job 4-MeOPhN2+~CF3COO-_B3LYPG-6-31G_dp-CH-Scan-d09-49-n800
 OpenBabel11261919493D

 24 23  0  0  0  0  0  0  0  0999 V2000
   -1.7025    0.0588   -0.1502 C   0  0  0  0  0  0  0  0  0  0  0  0
   -3.0773   -0.0267   -0.1931 N   0  0  0  0  0  0  0  0  0  0  0  0
   -4.1986   -0.0463   -0.2182 N   0  0  0  0  0  0  0  0  0  0  0  0
   -1.2112    1.3580    0.1230 C   0  0  0  0  0  0  0  0  0  0  0  0
    0.1954    1.3459    0.1470 C   0  0  0  0  0  0  0  0  0  0  0  0
    0.9787    0.2013   -0.0699 C   0  0  0  0  0  0  0  0  0  0  0  0
    2.3209    0.3724   -0.0081 O   0  0  0  0  0  0  0  0  0  0  0  0
    3.1860   -0.7383   -0.2130 C   0  0  0  0  0  0  0  0  0  0  0  0
    0.3804   -1.0637   -0.3384 C   0  0  0  0  0  0  0  0  0  0  0  0
   -0.9911   -1.1489   -0.3820 C   0  0  0  0  0  0  0  0  0  0  0  0
   -3.5157    3.9886    0.6267 H   0  0  0  0  0  0  0  0  0  0  0  0
    0.7516    2.2629    0.3444 H   0  0  0  0  0  0  0  0  0  0  0  0
    4.1996   -0.3483   -0.1124 H   0  0  0  0  0  0  0  0  0  0  0  0
    3.0637   -1.1663   -1.2155 H   0  0  0  0  0  0  0  0  0  0  0  0
    3.0245   -1.5202    0.5389 H   0  0  0  0  0  0  0  0  0  0  0  0
    0.9825   -1.9476   -0.5068 H   0  0  0  0  0  0  0  0  0  0  0  0
   -1.4937   -2.0916   -0.5845 H   0  0  0  0  0  0  0  0  0  0  0  0
   -4.2905    4.5736    0.6982 O   0  0  0  0  0  0  0  0  0  0  0  0
   -5.3860    3.8390    0.5012 C   0  0  0  0  0  0  0  0  0  0  0  0
   -5.4343    2.6570    0.2730 O   0  0  0  0  0  0  0  0  0  0  0  0
   -6.6422    4.7303    0.6145 C   0  0  0  0  0  0  0  0  0  0  0  0
   -6.5779    5.7486   -0.2611 F   0  0  0  0  0  0  0  0  0  0  0  0
   -7.7415    4.0164    0.3624 F   0  0  0  0  0  0  0  0  0  0  0  0
   -6.7355    5.2436    1.8543 F   0  0  0  0  0  0  0  0  0  0  0  0
  1  4  2  0  0  0  0
  2  1  1  0  0  0  0
  3  2  1  0  0  0  0
  4  5  1  0  0  0  0
  5 12  1  0  0  0  0
  6  7  1  0  0  0  0
  6  5  2  0  0  0  0
  8 13  1  0  0  0  0
  8  7  1  0  0  0  0
  8 15  1  0  0  0  0
  9  6  1  0  0  0  0
 10  9  2  0  0  0  0
 10  1  1  0  0  0  0
 11 18  1  0  0  0  0
 14  8  1  0  0  0  0
 16  9  1  0  0  0  0
 17 10  1  0  0  0  0
 19 21  1  0  0  0  0
 19 18  1  0  0  0  0
 20 19  2  0  0  0  0
 21 24  1  0  0  0  0
 22 21  1  0  0  0  0
 23 21  1  0  0  0  0
M  RAD  3   2   2   3   3   4   2
M  END
