Coordinates from ORCA-job 4-MeOPhN2+~CF3COO-_B3LYPG-6-31G_dp-CH-Scan-d09-49-n800
 OpenBabel11261919493D

 24 23  0  0  0  0  0  0  0  0999 V2000
   -1.5974    0.0822   -0.1368 C   0  0  0  0  0  0  0  0  0  0  0  0
   -2.9753    0.0476   -0.1672 N   0  0  0  0  0  0  0  0  0  0  0  0
   -4.0970    0.0737   -0.1791 N   0  0  0  0  0  0  0  0  0  0  0  0
   -1.0626    1.3652    0.1310 C   0  0  0  0  0  0  0  0  0  0  0  0
    0.3441    1.3023    0.1418 C   0  0  0  0  0  0  0  0  0  0  0  0
    1.0852    0.1315   -0.0816 C   0  0  0  0  0  0  0  0  0  0  0  0
    2.4339    0.2559   -0.0335 O   0  0  0  0  0  0  0  0  0  0  0  0
    3.2571   -0.8838   -0.2490 C   0  0  0  0  0  0  0  0  0  0  0  0
    0.4414   -1.1129   -0.3430 C   0  0  0  0  0  0  0  0  0  0  0  0
   -0.9324   -1.1508   -0.3738 C   0  0  0  0  0  0  0  0  0  0  0  0
   -3.6745    4.3151    0.7201 H   0  0  0  0  0  0  0  0  0  0  0  0
    0.9345    2.1994    0.3331 H   0  0  0  0  0  0  0  0  0  0  0  0
    4.2851   -0.5292   -0.1618 H   0  0  0  0  0  0  0  0  0  0  0  0
    3.1075   -1.3077   -1.2496 H   0  0  0  0  0  0  0  0  0  0  0  0
    3.0787   -1.6599    0.5052 H   0  0  0  0  0  0  0  0  0  0  0  0
    1.0114   -2.0170   -0.5158 H   0  0  0  0  0  0  0  0  0  0  0  0
   -1.4696   -2.0758   -0.5702 H   0  0  0  0  0  0  0  0  0  0  0  0
   -4.5037    4.8223    0.7659 O   0  0  0  0  0  0  0  0  0  0  0  0
   -5.5138    3.9823    0.5249 C   0  0  0  0  0  0  0  0  0  0  0  0
   -5.4303    2.8047    0.2895 O   0  0  0  0  0  0  0  0  0  0  0  0
   -6.8574    4.7397    0.6000 C   0  0  0  0  0  0  0  0  0  0  0  0
   -6.8630    5.7773   -0.2545 F   0  0  0  0  0  0  0  0  0  0  0  0
   -7.8659    3.9225    0.2909 F   0  0  0  0  0  0  0  0  0  0  0  0
   -7.0505    5.2142    1.8438 F   0  0  0  0  0  0  0  0  0  0  0  0
  1  4  2  0  0  0  0
  2  1  1  0  0  0  0
  3  2  1  0  0  0  0
  4  5  1  0  0  0  0
  5 12  1  0  0  0  0
  6  7  1  0  0  0  0
  6  5  2  0  0  0  0
  8 13  1  0  0  0  0
  8  7  1  0  0  0  0
  8 15  1  0  0  0  0
  9  6  1  0  0  0  0
 10  9  2  0  0  0  0
 10  1  1  0  0  0  0
 11 18  1  0  0  0  0
 14  8  1  0  0  0  0
 16  9  1  0  0  0  0
 17 10  1  0  0  0  0
 19 21  1  0  0  0  0
 19 18  1  0  0  0  0
 20 19  2  0  0  0  0
 21 24  1  0  0  0  0
 22 21  1  0  0  0  0
 23 21  1  0  0  0  0
M  RAD  3   2   2   3   3   4   2
M  END
