Coordinates from ORCA-job 4-MeOPhN2+~CF3COO-_B3LYPG-6-31G_dp-CH-Scan-d09-49-n800
 OpenBabel11261919493D

 24 23  0  0  0  0  0  0  0  0999 V2000
   -2.2948    0.4798    0.3618 C   0  0  0  0  0  0  0  0  0  0  0  0
   -3.6938    0.3047    0.4389 N   0  0  0  0  0  0  0  0  0  0  0  0
   -4.5507   -0.4245    0.3390 N   0  0  0  0  0  0  0  0  0  0  0  0
   -1.6572    1.6115    0.8814 C   0  0  0  0  0  0  0  0  0  0  0  0
   -0.2799    1.6881    0.7993 C   0  0  0  0  0  0  0  0  0  0  0  0
    0.4628    0.6552    0.1947 C   0  0  0  0  0  0  0  0  0  0  0  0
    1.7967    0.8400    0.1613 O   0  0  0  0  0  0  0  0  0  0  0  0
    2.6221   -0.1501   -0.4504 C   0  0  0  0  0  0  0  0  0  0  0  0
   -0.1961   -0.4755   -0.3246 C   0  0  0  0  0  0  0  0  0  0  0  0
   -1.5775   -0.5660   -0.2362 C   0  0  0  0  0  0  0  0  0  0  0  0
   -2.2781    2.4084    1.3420 H   0  0  0  0  0  0  0  0  0  0  0  0
    0.2536    2.5468    1.1908 H   0  0  0  0  0  0  0  0  0  0  0  0
    3.6423    0.2252   -0.3684 H   0  0  0  0  0  0  0  0  0  0  0  0
    2.3663   -0.2828   -1.5077 H   0  0  0  0  0  0  0  0  0  0  0  0
    2.5452   -1.1104    0.0724 H   0  0  0  0  0  0  0  0  0  0  0  0
    0.3557   -1.2796   -0.7944 H   0  0  0  0  0  0  0  0  0  0  0  0
   -2.1015   -1.4285   -0.6326 H   0  0  0  0  0  0  0  0  0  0  0  0
   -4.3694    2.2174    1.0525 O   0  0  0  0  0  0  0  0  0  0  0  0
   -4.6149    2.7795   -0.0759 C   0  0  0  0  0  0  0  0  0  0  0  0
   -4.3229    2.3959   -1.2053 O   0  0  0  0  0  0  0  0  0  0  0  0
   -5.3445    4.1424    0.0993 C   0  0  0  0  0  0  0  0  0  0  0  0
   -5.7641    4.6413   -1.0724 F   0  0  0  0  0  0  0  0  0  0  0  0
   -6.4146    4.0346    0.9115 F   0  0  0  0  0  0  0  0  0  0  0  0
   -4.4993    5.0451    0.6535 F   0  0  0  0  0  0  0  0  0  0  0  0
  1  2  1  0  0  0  0
  1  4  2  0  0  0  0
  3  2  2  0  0  0  0
  4 11  1  0  0  0  0
  5  4  1  0  0  0  0
  5 12  1  0  0  0  0
  6  5  2  0  0  0  0
  7  6  1  0  0  0  0
  8 13  1  0  0  0  0
  8 15  1  0  0  0  0
  8  7  1  0  0  0  0
  9 10  2  0  0  0  0
  9  6  1  0  0  0  0
 10  1  1  0  0  0  0
 14  8  1  0  0  0  0
 16  9  1  0  0  0  0
 17 10  1  0  0  0  0
 19 21  1  0  0  0  0
 19 18  1  0  0  0  0
 20 19  2  0  0  0  0
 21 24  1  0  0  0  0
 21 23  1  0  0  0  0
 22 21  1  0  0  0  0
M  RAD  2   3   2  18   2
M  END
