Coordinates from ORCA-job 4-MeOPhN2+~CF3COO-_B3LYPG-6-31G_dp-CH-Scan-d09-49-n800
 OpenBabel11261919493D

 24 23  0  0  0  0  0  0  0  0999 V2000
   -1.7172    0.0573   -0.1517 C   0  0  0  0  0  0  0  0  0  0  0  0
   -3.0913   -0.0346   -0.1963 N   0  0  0  0  0  0  0  0  0  0  0  0
   -4.2125   -0.0597   -0.2230 N   0  0  0  0  0  0  0  0  0  0  0  0
   -1.2311    1.3585    0.1219 C   0  0  0  0  0  0  0  0  0  0  0  0
    0.1753    1.3525    0.1476 C   0  0  0  0  0  0  0  0  0  0  0  0
    0.9637    0.2111   -0.0683 C   0  0  0  0  0  0  0  0  0  0  0  0
    2.3050    0.3880   -0.0049 O   0  0  0  0  0  0  0  0  0  0  0  0
    3.1751   -0.7191   -0.2085 C   0  0  0  0  0  0  0  0  0  0  0  0
    0.3710   -1.0563   -0.3374 C   0  0  0  0  0  0  0  0  0  0  0  0
   -1.0001   -1.1472   -0.3825 C   0  0  0  0  0  0  0  0  0  0  0  0
   -3.4937    3.9471    0.6153 H   0  0  0  0  0  0  0  0  0  0  0  0
    0.7273    2.2719    0.3455 H   0  0  0  0  0  0  0  0  0  0  0  0
    4.1869   -0.3247   -0.1065 H   0  0  0  0  0  0  0  0  0  0  0  0
    3.0561   -1.1476   -1.2111 H   0  0  0  0  0  0  0  0  0  0  0  0
    3.0158   -1.5015    0.5433 H   0  0  0  0  0  0  0  0  0  0  0  0
    0.9769   -1.9377   -0.5050 H   0  0  0  0  0  0  0  0  0  0  0  0
   -1.4985   -2.0921   -0.5855 H   0  0  0  0  0  0  0  0  0  0  0  0
   -4.2618    4.5408    0.6898 O   0  0  0  0  0  0  0  0  0  0  0  0
   -5.3666    3.8194    0.4981 C   0  0  0  0  0  0  0  0  0  0  0  0
   -5.4305    2.6379    0.2712 O   0  0  0  0  0  0  0  0  0  0  0  0
   -6.6115    4.7258    0.6156 C   0  0  0  0  0  0  0  0  0  0  0  0
   -6.5390    5.7419   -0.2620 F   0  0  0  0  0  0  0  0  0  0  0  0
   -7.7205    4.0248    0.3696 F   0  0  0  0  0  0  0  0  0  0  0  0
   -6.6933    5.2423    1.8550 F   0  0  0  0  0  0  0  0  0  0  0  0
  1  4  2  0  0  0  0
  2  1  1  0  0  0  0
  3  2  1  0  0  0  0
  4  5  1  0  0  0  0
  5 12  1  0  0  0  0
  6  7  1  0  0  0  0
  6  5  2  0  0  0  0
  8 13  1  0  0  0  0
  8  7  1  0  0  0  0
  8 15  1  0  0  0  0
  9  6  1  0  0  0  0
 10  9  2  0  0  0  0
 10  1  1  0  0  0  0
 11 18  1  0  0  0  0
 14  8  1  0  0  0  0
 16  9  1  0  0  0  0
 17 10  1  0  0  0  0
 19 21  1  0  0  0  0
 19 18  1  0  0  0  0
 20 19  2  0  0  0  0
 21 24  1  0  0  0  0
 22 21  1  0  0  0  0
 23 21  1  0  0  0  0
M  RAD  3   2   2   3   3   4   2
M  END
