Coordinates from ORCA-job 4-MeOPhN2+~CF3COO-_B3LYPG-6-31G_dp-CH-Scan-d09-49-n800
 OpenBabel11261919493D

 24 23  0  0  0  0  0  0  0  0999 V2000
   -2.2905    0.4767    0.3715 C   0  0  0  0  0  0  0  0  0  0  0  0
   -3.6889    0.3040    0.4541 N   0  0  0  0  0  0  0  0  0  0  0  0
   -4.5509   -0.4193    0.3597 N   0  0  0  0  0  0  0  0  0  0  0  0
   -1.6481    1.6002    0.9003 C   0  0  0  0  0  0  0  0  0  0  0  0
   -0.2720    1.6791    0.8173 C   0  0  0  0  0  0  0  0  0  0  0  0
    0.4666    0.6508    0.1989 C   0  0  0  0  0  0  0  0  0  0  0  0
    1.8006    0.8335    0.1631 O   0  0  0  0  0  0  0  0  0  0  0  0
    2.6224   -0.1502   -0.4638 C   0  0  0  0  0  0  0  0  0  0  0  0
   -0.1957   -0.4735   -0.3308 C   0  0  0  0  0  0  0  0  0  0  0  0
   -1.5768   -0.5641   -0.2399 C   0  0  0  0  0  0  0  0  0  0  0  0
   -2.3163    2.4329    1.3917 H   0  0  0  0  0  0  0  0  0  0  0  0
    0.2639    2.5327    1.2161 H   0  0  0  0  0  0  0  0  0  0  0  0
    3.6433    0.2230   -0.3816 H   0  0  0  0  0  0  0  0  0  0  0  0
    2.3619   -0.2700   -1.5216 H   0  0  0  0  0  0  0  0  0  0  0  0
    2.5466   -1.1166    0.0478 H   0  0  0  0  0  0  0  0  0  0  0  0
    0.3542   -1.2729   -0.8109 H   0  0  0  0  0  0  0  0  0  0  0  0
   -2.1028   -1.4220   -0.6440 H   0  0  0  0  0  0  0  0  0  0  0  0
   -4.3692    2.2324    1.0642 O   0  0  0  0  0  0  0  0  0  0  0  0
   -4.6112    2.7795   -0.0719 C   0  0  0  0  0  0  0  0  0  0  0  0
   -4.3143    2.3815   -1.1954 O   0  0  0  0  0  0  0  0  0  0  0  0
   -5.3463    4.1420    0.0823 C   0  0  0  0  0  0  0  0  0  0  0  0
   -5.7449    4.6345   -1.0995 F   0  0  0  0  0  0  0  0  0  0  0  0
   -6.4317    4.0350    0.8743 F   0  0  0  0  0  0  0  0  0  0  0  0
   -4.5146    5.0496    0.6484 F   0  0  0  0  0  0  0  0  0  0  0  0
  1  2  1  0  0  0  0
  1  4  2  0  0  0  0
  3  2  2  0  0  0  0
  4 11  1  0  0  0  0
  5  4  1  0  0  0  0
  5 12  1  0  0  0  0
  6  5  2  0  0  0  0
  7  6  1  0  0  0  0
  8 13  1  0  0  0  0
  8 15  1  0  0  0  0
  8  7  1  0  0  0  0
  9 10  2  0  0  0  0
  9  6  1  0  0  0  0
 10  1  1  0  0  0  0
 14  8  1  0  0  0  0
 16  9  1  0  0  0  0
 17 10  1  0  0  0  0
 19 21  1  0  0  0  0
 19 18  1  0  0  0  0
 20 19  2  0  0  0  0
 21 24  1  0  0  0  0
 21 23  1  0  0  0  0
 22 21  1  0  0  0  0
M  RAD  2   3   2  18   2
M  END
