Coordinates from ORCA-job 4-MeOPhN2+~CF3COO-_B3LYPG-6-31G_dp-CH-Scan-d09-49-n800
 OpenBabel11261919493D

 24 23  0  0  0  0  0  0  0  0999 V2000
   -2.1005    0.0380   -0.2086 C   0  0  0  0  0  0  0  0  0  0  0  0
   -3.4489   -0.2136   -0.3035 N   0  0  0  0  0  0  0  0  0  0  0  0
   -4.5558   -0.3686   -0.3697 N   0  0  0  0  0  0  0  0  0  0  0  0
   -1.7412    1.3775    0.0800 C   0  0  0  0  0  0  0  0  0  0  0  0
   -0.3519    1.5283    0.1591 C   0  0  0  0  0  0  0  0  0  0  0  0
    0.5608    0.4745   -0.0254 C   0  0  0  0  0  0  0  0  0  0  0  0
    1.8669    0.7936    0.0890 O   0  0  0  0  0  0  0  0  0  0  0  0
    2.8602   -0.2152   -0.0727 C   0  0  0  0  0  0  0  0  0  0  0  0
    0.1102   -0.8426   -0.3143 C   0  0  0  0  0  0  0  0  0  0  0  0
   -1.2427   -1.0733   -0.4093 C   0  0  0  0  0  0  0  0  0  0  0  0
   -2.9778    2.8387    0.3365 H   0  0  0  0  0  0  0  0  0  0  0  0
    0.0843    2.5016    0.3770 H   0  0  0  0  0  0  0  0  0  0  0  0
    3.8171    0.2862    0.0737 H   0  0  0  0  0  0  0  0  0  0  0  0
    2.8305   -0.6499   -1.0785 H   0  0  0  0  0  0  0  0  0  0  0  0
    2.7500   -1.0099    0.6745 H   0  0  0  0  0  0  0  0  0  0  0  0
    0.8069   -1.6581   -0.4595 H   0  0  0  0  0  0  0  0  0  0  0  0
   -1.6314   -2.0638   -0.6291 H   0  0  0  0  0  0  0  0  0  0  0  0
   -3.5795    3.6548    0.4808 O   0  0  0  0  0  0  0  0  0  0  0  0
   -4.8448    3.3155    0.4305 C   0  0  0  0  0  0  0  0  0  0  0  0
   -5.3233    2.2149    0.2422 O   0  0  0  0  0  0  0  0  0  0  0  0
   -5.7466    4.5541    0.6422 C   0  0  0  0  0  0  0  0  0  0  0  0
   -5.5539    5.4504   -0.3460 F   0  0  0  0  0  0  0  0  0  0  0  0
   -7.0391    4.2078    0.6488 F   0  0  0  0  0  0  0  0  0  0  0  0
   -5.4640    5.1578    1.8126 F   0  0  0  0  0  0  0  0  0  0  0  0
  1  4  2  0  0  0  0
  2  1  1  0  0  0  0
  3  2  1  0  0  0  0
  4  5  1  0  0  0  0
  5 12  1  0  0  0  0
  6  7  1  0  0  0  0
  6  5  2  0  0  0  0
  8 13  1  0  0  0  0
  8  7  1  0  0  0  0
  8 15  1  0  0  0  0
  9  6  1  0  0  0  0
 10  9  2  0  0  0  0
 10  1  1  0  0  0  0
 11 18  1  0  0  0  0
 14  8  1  0  0  0  0
 16  9  1  0  0  0  0
 17 10  1  0  0  0  0
 19 18  1  0  0  0  0
 19 21  1  0  0  0  0
 20 19  2  0  0  0  0
 21 23  1  0  0  0  0
 21 24  1  0  0  0  0
 22 21  1  0  0  0  0
M  RAD  3   2   2   3   3   4   2
M  END
