Coordinates from ORCA-job 4-MeOPhN2+~CF3COO-_B3LYPG-6-31G_dp-CH-Scan-d09-49-n800
 OpenBabel11261919493D

 24 23  0  0  0  0  0  0  0  0999 V2000
   -1.5646    0.1093   -0.2774 C   0  0  0  0  0  0  0  0  0  0  0  0
   -2.9406    0.0978   -0.3641 N   0  0  0  0  0  0  0  0  0  0  0  0
   -4.0601    0.1447   -0.4265 N   0  0  0  0  0  0  0  0  0  0  0  0
   -1.0185    1.3952   -0.0501 C   0  0  0  0  0  0  0  0  0  0  0  0
    0.3851    1.3098    0.0252 C   0  0  0  0  0  0  0  0  0  0  0  0
    1.1129    0.1171   -0.1061 C   0  0  0  0  0  0  0  0  0  0  0  0
    2.4604    0.2210   -0.0026 O   0  0  0  0  0  0  0  0  0  0  0  0
    3.2697   -0.9433   -0.1154 C   0  0  0  0  0  0  0  0  0  0  0  0
    0.4581   -1.1280   -0.3355 C   0  0  0  0  0  0  0  0  0  0  0  0
   -0.9136   -1.1449   -0.4254 C   0  0  0  0  0  0  0  0  0  0  0  0
   -3.7224    4.4421    0.4880 H   0  0  0  0  0  0  0  0  0  0  0  0
    0.9835    2.2055    0.1978 H   0  0  0  0  0  0  0  0  0  0  0  0
    4.2990   -0.6034    0.0072 H   0  0  0  0  0  0  0  0  0  0  0  0
    3.1626   -1.4168   -1.0992 H   0  0  0  0  0  0  0  0  0  0  0  0
    3.0361   -1.6747    0.6677 H   0  0  0  0  0  0  0  0  0  0  0  0
    1.0190   -2.0483   -0.4396 H   0  0  0  0  0  0  0  0  0  0  0  0
   -1.4589   -2.0692   -0.6011 H   0  0  0  0  0  0  0  0  0  0  0  0
   -4.5614    4.9081    0.6454 O   0  0  0  0  0  0  0  0  0  0  0  0
   -5.5532    4.0214    0.5204 C   0  0  0  0  0  0  0  0  0  0  0  0
   -5.4433    2.8513    0.2596 O   0  0  0  0  0  0  0  0  0  0  0  0
   -6.9112    4.7159    0.7609 C   0  0  0  0  0  0  0  0  0  0  0  0
   -7.0951    5.7026   -0.1339 F   0  0  0  0  0  0  0  0  0  0  0  0
   -7.9073    3.8361    0.6408 F   0  0  0  0  0  0  0  0  0  0  0  0
   -6.9507    5.2493    1.9942 F   0  0  0  0  0  0  0  0  0  0  0  0
  1  4  2  0  0  0  0
  2  1  1  0  0  0  0
  3  2  1  0  0  0  0
  4  5  1  0  0  0  0
  5 12  1  0  0  0  0
  6  7  1  0  0  0  0
  6  5  2  0  0  0  0
  8  7  1  0  0  0  0
  8 13  1  0  0  0  0
  8 15  1  0  0  0  0
  9  6  1  0  0  0  0
 10  9  2  0  0  0  0
 10  1  1  0  0  0  0
 11 18  1  0  0  0  0
 14  8  1  0  0  0  0
 16  9  1  0  0  0  0
 17 10  1  0  0  0  0
 19 18  1  0  0  0  0
 19 21  1  0  0  0  0
 20 19  2  0  0  0  0
 21 24  1  0  0  0  0
 22 21  1  0  0  0  0
 23 21  1  0  0  0  0
M  RAD  3   2   2   3   3   4   2
M  END
