Coordinates from ORCA-job 4-MeOPhN2+~CF3COO-_B3LYPG-6-31G_dp-CH-Scan-d09-49-n800
 OpenBabel11261919493D

 24 23  0  0  0  0  0  0  0  0999 V2000
   -2.1452    0.0422   -0.2176 C   0  0  0  0  0  0  0  0  0  0  0  0
   -3.4904   -0.2235   -0.3185 N   0  0  0  0  0  0  0  0  0  0  0  0
   -4.5961   -0.3822   -0.3877 N   0  0  0  0  0  0  0  0  0  0  0  0
   -1.7948    1.3847    0.0657 C   0  0  0  0  0  0  0  0  0  0  0  0
   -0.4098    1.5526    0.1521 C   0  0  0  0  0  0  0  0  0  0  0  0
    0.5143    0.5063   -0.0223 C   0  0  0  0  0  0  0  0  0  0  0  0
    1.8154    0.8393    0.0971 O   0  0  0  0  0  0  0  0  0  0  0  0
    2.8204   -0.1601   -0.0548 C   0  0  0  0  0  0  0  0  0  0  0  0
    0.0768   -0.8154   -0.3066 C   0  0  0  0  0  0  0  0  0  0  0  0
   -1.2738   -1.0592   -0.4075 C   0  0  0  0  0  0  0  0  0  0  0  0
   -2.9034    2.7015    0.2912 H   0  0  0  0  0  0  0  0  0  0  0  0
    0.0120    2.5324    0.3673 H   0  0  0  0  0  0  0  0  0  0  0  0
    3.7710    0.3525    0.0932 H   0  0  0  0  0  0  0  0  0  0  0  0
    2.7993   -0.5999   -1.0585 H   0  0  0  0  0  0  0  0  0  0  0  0
    2.7147   -0.9516    0.6963 H   0  0  0  0  0  0  0  0  0  0  0  0
    0.7813   -1.6254   -0.4440 H   0  0  0  0  0  0  0  0  0  0  0  0
   -1.6517   -2.0544   -0.6240 H   0  0  0  0  0  0  0  0  0  0  0  0
   -3.5091    3.5590    0.4425 O   0  0  0  0  0  0  0  0  0  0  0  0
   -4.7781    3.2594    0.4221 C   0  0  0  0  0  0  0  0  0  0  0  0
   -5.2999    2.1719    0.2508 O   0  0  0  0  0  0  0  0  0  0  0  0
   -5.6451    4.5215    0.6474 C   0  0  0  0  0  0  0  0  0  0  0  0
   -5.4435    5.4161   -0.3416 F   0  0  0  0  0  0  0  0  0  0  0  0
   -6.9483    4.2141    0.6728 F   0  0  0  0  0  0  0  0  0  0  0  0
   -5.3307    5.1170    1.8150 F   0  0  0  0  0  0  0  0  0  0  0  0
  1  4  2  0  0  0  0
  2  1  1  0  0  0  0
  3  2  1  0  0  0  0
  4  5  1  0  0  0  0
  5 12  1  0  0  0  0
  6  7  1  0  0  0  0
  6  5  2  0  0  0  0
  8 13  1  0  0  0  0
  8  7  1  0  0  0  0
  8 15  1  0  0  0  0
  9  6  1  0  0  0  0
 10  9  2  0  0  0  0
 10  1  1  0  0  0  0
 11 18  1  0  0  0  0
 14  8  1  0  0  0  0
 16  9  1  0  0  0  0
 17 10  1  0  0  0  0
 19 18  1  0  0  0  0
 19 21  1  0  0  0  0
 20 19  2  0  0  0  0
 21 23  1  0  0  0  0
 21 24  1  0  0  0  0
 22 21  1  0  0  0  0
M  RAD  3   2   2   3   3   4   2
M  END
