Coordinates from ORCA-job 4-MeOPhN2+~CF3COO-_B3LYPG-6-31G_dp-CH-Scan-d09-49-n800
 OpenBabel11261919493D

 24 23  0  0  0  0  0  0  0  0999 V2000
   -1.6339    0.0720   -0.1430 C   0  0  0  0  0  0  0  0  0  0  0  0
   -3.0110    0.0192   -0.1783 N   0  0  0  0  0  0  0  0  0  0  0  0
   -4.1329    0.0283   -0.1923 N   0  0  0  0  0  0  0  0  0  0  0  0
   -1.1154    1.3611    0.1272 C   0  0  0  0  0  0  0  0  0  0  0  0
    0.2915    1.3168    0.1432 C   0  0  0  0  0  0  0  0  0  0  0  0
    1.0484    0.1556   -0.0776 C   0  0  0  0  0  0  0  0  0  0  0  0
    2.3949    0.2971   -0.0238 O   0  0  0  0  0  0  0  0  0  0  0  0
    3.2337   -0.8322   -0.2348 C   0  0  0  0  0  0  0  0  0  0  0  0
    0.4214   -1.0966   -0.3422 C   0  0  0  0  0  0  0  0  0  0  0  0
   -0.9518   -1.1519   -0.3783 C   0  0  0  0  0  0  0  0  0  0  0  0
   -3.6180    4.1980    0.6837 H   0  0  0  0  0  0  0  0  0  0  0  0
    0.8695    2.2214    0.3370 H   0  0  0  0  0  0  0  0  0  0  0  0
    4.2565   -0.4646   -0.1422 H   0  0  0  0  0  0  0  0  0  0  0  0
    3.0946   -1.2579   -1.2362 H   0  0  0  0  0  0  0  0  0  0  0  0
    3.0610   -1.6104    0.5184 H   0  0  0  0  0  0  0  0  0  0  0  0
    1.0033   -1.9933   -0.5134 H   0  0  0  0  0  0  0  0  0  0  0  0
   -1.4764   -2.0835   -0.5774 H   0  0  0  0  0  0  0  0  0  0  0  0
   -4.4276    4.7348    0.7391 O   0  0  0  0  0  0  0  0  0  0  0  0
   -5.4710    3.9322    0.5159 C   0  0  0  0  0  0  0  0  0  0  0  0
   -5.4362    2.7512    0.2831 O   0  0  0  0  0  0  0  0  0  0  0  0
   -6.7840    4.7401    0.6071 C   0  0  0  0  0  0  0  0  0  0  0  0
   -6.7647    5.7709   -0.2555 F   0  0  0  0  0  0  0  0  0  0  0  0
   -7.8277    3.9594    0.3209 F   0  0  0  0  0  0  0  0  0  0  0  0
   -6.9388    5.2309    1.8499 F   0  0  0  0  0  0  0  0  0  0  0  0
  1  4  2  0  0  0  0
  2  1  1  0  0  0  0
  3  2  1  0  0  0  0
  4  5  1  0  0  0  0
  5 12  1  0  0  0  0
  6  7  1  0  0  0  0
  6  5  2  0  0  0  0
  8 13  1  0  0  0  0
  8  7  1  0  0  0  0
  8 15  1  0  0  0  0
  9  6  1  0  0  0  0
 10  9  2  0  0  0  0
 10  1  1  0  0  0  0
 11 18  1  0  0  0  0
 14  8  1  0  0  0  0
 16  9  1  0  0  0  0
 17 10  1  0  0  0  0
 19 21  1  0  0  0  0
 19 18  1  0  0  0  0
 20 19  2  0  0  0  0
 21 24  1  0  0  0  0
 22 21  1  0  0  0  0
 23 21  1  0  0  0  0
M  RAD  3   2   2   3   3   4   2
M  END
