Coordinates from ORCA-job 4-MeOPhN2+~CF3COO-_B3LYPG-6-31G_dp-CH-Scan-d09-49-n800
 OpenBabel11261919493D

 24 23  0  0  0  0  0  0  0  0999 V2000
   -1.6009    0.0817   -0.1381 C   0  0  0  0  0  0  0  0  0  0  0  0
   -2.9788    0.0457   -0.1693 N   0  0  0  0  0  0  0  0  0  0  0  0
   -4.1006    0.0695   -0.1800 N   0  0  0  0  0  0  0  0  0  0  0  0
   -1.0674    1.3650    0.1301 C   0  0  0  0  0  0  0  0  0  0  0  0
    0.3393    1.3038    0.1417 C   0  0  0  0  0  0  0  0  0  0  0  0
    1.0817    0.1338   -0.0812 C   0  0  0  0  0  0  0  0  0  0  0  0
    2.4303    0.2596   -0.0322 O   0  0  0  0  0  0  0  0  0  0  0  0
    3.2549   -0.8792   -0.2469 C   0  0  0  0  0  0  0  0  0  0  0  0
    0.4394   -1.1112   -0.3431 C   0  0  0  0  0  0  0  0  0  0  0  0
   -0.9344   -1.1506   -0.3748 C   0  0  0  0  0  0  0  0  0  0  0  0
   -3.6691    4.3045    0.7152 H   0  0  0  0  0  0  0  0  0  0  0  0
    0.9286    2.2016    0.3333 H   0  0  0  0  0  0  0  0  0  0  0  0
    4.2824   -0.5235   -0.1589 H   0  0  0  0  0  0  0  0  0  0  0  0
    3.1065   -1.3033   -1.2477 H   0  0  0  0  0  0  0  0  0  0  0  0
    3.0766   -1.6555    0.5071 H   0  0  0  0  0  0  0  0  0  0  0  0
    1.0105   -2.0147   -0.5157 H   0  0  0  0  0  0  0  0  0  0  0  0
   -1.4705   -2.0761   -0.5716 H   0  0  0  0  0  0  0  0  0  0  0  0
   -4.4963    4.8145    0.7620 O   0  0  0  0  0  0  0  0  0  0  0  0
   -5.5095    3.9774    0.5238 C   0  0  0  0  0  0  0  0  0  0  0  0
   -5.4307    2.7992    0.2891 O   0  0  0  0  0  0  0  0  0  0  0  0
   -6.8505    4.7393    0.6014 C   0  0  0  0  0  0  0  0  0  0  0  0
   -6.8547    5.7760   -0.2543 F   0  0  0  0  0  0  0  0  0  0  0  0
   -7.8624    3.9251    0.2956 F   0  0  0  0  0  0  0  0  0  0  0  0
   -7.0390    5.2160    1.8450 F   0  0  0  0  0  0  0  0  0  0  0  0
  1  4  2  0  0  0  0
  2  1  1  0  0  0  0
  3  2  1  0  0  0  0
  4  5  1  0  0  0  0
  5 12  1  0  0  0  0
  6  7  1  0  0  0  0
  6  5  2  0  0  0  0
  8 13  1  0  0  0  0
  8  7  1  0  0  0  0
  8 15  1  0  0  0  0
  9  6  1  0  0  0  0
 10  9  2  0  0  0  0
 10  1  1  0  0  0  0
 11 18  1  0  0  0  0
 14  8  1  0  0  0  0
 16  9  1  0  0  0  0
 17 10  1  0  0  0  0
 19 21  1  0  0  0  0
 19 18  1  0  0  0  0
 20 19  2  0  0  0  0
 21 24  1  0  0  0  0
 22 21  1  0  0  0  0
 23 21  1  0  0  0  0
M  RAD  3   2   2   3   3   4   2
M  END
