Coordinates from ORCA-job 4-MeOPhN2+~CF3COO-_B3LYPG-6-31G_dp-CH-Scan-d09-49-n800
 OpenBabel11261919493D

 24 23  0  0  0  0  0  0  0  0999 V2000
   -2.1689    0.0819   -0.2200 C   0  0  0  0  0  0  0  0  0  0  0  0
   -3.5267   -0.1382   -0.3143 N   0  0  0  0  0  0  0  0  0  0  0  0
   -4.6485   -0.0971   -0.3382 N   0  0  0  0  0  0  0  0  0  0  0  0
   -1.7738    1.4084    0.0479 C   0  0  0  0  0  0  0  0  0  0  0  0
   -0.4022    1.5944    0.1415 C   0  0  0  0  0  0  0  0  0  0  0  0
    0.5104    0.5322   -0.0204 C   0  0  0  0  0  0  0  0  0  0  0  0
    1.8105    0.8561    0.0987 O   0  0  0  0  0  0  0  0  0  0  0  0
    2.8088   -0.1535   -0.0429 C   0  0  0  0  0  0  0  0  0  0  0  0
    0.0543   -0.7821   -0.2909 C   0  0  0  0  0  0  0  0  0  0  0  0
   -1.3022   -1.0155   -0.3936 C   0  0  0  0  0  0  0  0  0  0  0  0
   -2.6970    2.4235    0.2009 H   0  0  0  0  0  0  0  0  0  0  0  0
    0.0093    2.5786    0.3470 H   0  0  0  0  0  0  0  0  0  0  0  0
    3.7624    0.3537    0.1016 H   0  0  0  0  0  0  0  0  0  0  0  0
    2.7836   -0.6010   -1.0428 H   0  0  0  0  0  0  0  0  0  0  0  0
    2.6942   -0.9359    0.7160 H   0  0  0  0  0  0  0  0  0  0  0  0
    0.7493   -1.6020   -0.4177 H   0  0  0  0  0  0  0  0  0  0  0  0
   -1.6877   -2.0090   -0.5999 H   0  0  0  0  0  0  0  0  0  0  0  0
   -3.5138    3.4508    0.3667 O   0  0  0  0  0  0  0  0  0  0  0  0
   -4.7601    3.1908    0.3904 C   0  0  0  0  0  0  0  0  0  0  0  0
   -5.3584    2.1175    0.2392 O   0  0  0  0  0  0  0  0  0  0  0  0
   -5.6205    4.4580    0.6534 C   0  0  0  0  0  0  0  0  0  0  0  0
   -5.4234    5.3759   -0.3180 F   0  0  0  0  0  0  0  0  0  0  0  0
   -6.9336    4.1830    0.6961 F   0  0  0  0  0  0  0  0  0  0  0  0
   -5.2807    5.0282    1.8295 F   0  0  0  0  0  0  0  0  0  0  0  0
  1  4  2  0  0  0  0
  2  1  1  0  0  0  0
  3  2  1  0  0  0  0
  4  5  1  0  0  0  0
  5 12  1  0  0  0  0
  6  7  1  0  0  0  0
  6  5  2  0  0  0  0
  8  7  1  0  0  0  0
  8 13  1  0  0  0  0
  8 15  1  0  0  0  0
  9  6  1  0  0  0  0
 10  9  2  0  0  0  0
 10  1  1  0  0  0  0
 11 18  1  0  0  0  0
 14  8  1  0  0  0  0
 16  9  1  0  0  0  0
 17 10  1  0  0  0  0
 18 19  1  0  0  0  0
 19 21  1  0  0  0  0
 20 19  2  0  0  0  0
 21 23  1  0  0  0  0
 21 24  1  0  0  0  0
 22 21  1  0  0  0  0
M  RAD  3   2   2   3   3   4   2
M  END
