Coordinates from ORCA-job 4-MeOPhN2+~CF3COO-_B3LYPG-6-31G_dp-CH-Scan-d09-49-n800
 OpenBabel11261919493D

 24 23  0  0  0  0  0  0  0  0999 V2000
   -1.5337    0.1138   -0.2766 C   0  0  0  0  0  0  0  0  0  0  0  0
   -2.9100    0.1154   -0.3612 N   0  0  0  0  0  0  0  0  0  0  0  0
   -4.0291    0.1744   -0.4225 N   0  0  0  0  0  0  0  0  0  0  0  0
   -0.9759    1.3956   -0.0554 C   0  0  0  0  0  0  0  0  0  0  0  0
    0.4271    1.2976    0.0177 C   0  0  0  0  0  0  0  0  0  0  0  0
    1.1436    0.0979   -0.1105 C   0  0  0  0  0  0  0  0  0  0  0  0
    2.4923    0.1899   -0.0104 O   0  0  0  0  0  0  0  0  0  0  0  0
    3.2909   -0.9820   -0.1215 C   0  0  0  0  0  0  0  0  0  0  0  0
    0.4771   -1.1422   -0.3335 C   0  0  0  0  0  0  0  0  0  0  0  0
   -0.8949   -1.1470   -0.4207 C   0  0  0  0  0  0  0  0  0  0  0  0
   -3.7759    4.5183    0.4879 H   0  0  0  0  0  0  0  0  0  0  0  0
    1.0340    2.1885    0.1857 H   0  0  0  0  0  0  0  0  0  0  0  0
    4.3236   -0.6509   -0.0032 H   0  0  0  0  0  0  0  0  0  0  0  0
    3.1766   -1.4580   -1.1033 H   0  0  0  0  0  0  0  0  0  0  0  0
    3.0531   -1.7086    0.6648 H   0  0  0  0  0  0  0  0  0  0  0  0
    1.0295   -2.0680   -0.4348 H   0  0  0  0  0  0  0  0  0  0  0  0
   -1.4490   -2.0670   -0.5914 H   0  0  0  0  0  0  0  0  0  0  0  0
   -4.6245    4.9675    0.6437 O   0  0  0  0  0  0  0  0  0  0  0  0
   -5.5974    4.0590    0.5235 C   0  0  0  0  0  0  0  0  0  0  0  0
   -5.4623    2.8907    0.2672 O   0  0  0  0  0  0  0  0  0  0  0  0
   -6.9694    4.7249    0.7657 C   0  0  0  0  0  0  0  0  0  0  0  0
   -7.1682    5.7195   -0.1168 F   0  0  0  0  0  0  0  0  0  0  0  0
   -7.9482    3.8281    0.6301 F   0  0  0  0  0  0  0  0  0  0  0  0
   -7.0236    5.2412    2.0059 F   0  0  0  0  0  0  0  0  0  0  0  0
  1  4  2  0  0  0  0
  2  1  1  0  0  0  0
  3  2  1  0  0  0  0
  4  5  1  0  0  0  0
  5 12  1  0  0  0  0
  6  7  1  0  0  0  0
  6  5  2  0  0  0  0
  8  7  1  0  0  0  0
  8 13  1  0  0  0  0
  8 15  1  0  0  0  0
  9  6  1  0  0  0  0
 10  9  2  0  0  0  0
 10  1  1  0  0  0  0
 11 18  1  0  0  0  0
 14  8  1  0  0  0  0
 16  9  1  0  0  0  0
 17 10  1  0  0  0  0
 19 18  1  0  0  0  0
 19 21  1  0  0  0  0
 20 19  2  0  0  0  0
 21 24  1  0  0  0  0
 22 21  1  0  0  0  0
 23 21  1  0  0  0  0
M  RAD  3   2   2   3   3   4   2
M  END
