Coordinates from ORCA-job 4-MeOPhN2+~CF3COO-_B3LYPG-6-31G_dp-CH-Scan-d09-49-n800
 OpenBabel11261919493D

 24 23  0  0  0  0  0  0  0  0999 V2000
   -1.4243    0.1519   -0.2592 C   0  0  0  0  0  0  0  0  0  0  0  0
   -2.8005    0.2100   -0.3285 N   0  0  0  0  0  0  0  0  0  0  0  0
   -3.9167    0.3180   -0.3773 N   0  0  0  0  0  0  0  0  0  0  0  0
   -0.8153    1.4130   -0.0574 C   0  0  0  0  0  0  0  0  0  0  0  0
    0.5839    1.2609    0.0003 C   0  0  0  0  0  0  0  0  0  0  0  0
    1.2513    0.0331   -0.1257 C   0  0  0  0  0  0  0  0  0  0  0  0
    2.6041    0.0735   -0.0449 O   0  0  0  0  0  0  0  0  0  0  0  0
    3.3554   -1.1286   -0.1606 C   0  0  0  0  0  0  0  0  0  0  0  0
    0.5341   -1.1824   -0.3274 C   0  0  0  0  0  0  0  0  0  0  0  0
   -0.8379   -1.1348   -0.3977 C   0  0  0  0  0  0  0  0  0  0  0  0
   -3.9626    4.7862    0.5608 H   0  0  0  0  0  0  0  0  0  0  0  0
    1.2271    2.1289    0.1523 H   0  0  0  0  0  0  0  0  0  0  0  0
    4.4018   -0.8364   -0.0622 H   0  0  0  0  0  0  0  0  0  0  0  0
    3.2063   -1.6069   -1.1368 H   0  0  0  0  0  0  0  0  0  0  0  0
    3.1040   -1.8405    0.6351 H   0  0  0  0  0  0  0  0  0  0  0  0
    1.0490   -2.1299   -0.4254 H   0  0  0  0  0  0  0  0  0  0  0  0
   -1.4297   -2.0342   -0.5511 H   0  0  0  0  0  0  0  0  0  0  0  0
   -4.8479    5.1665    0.6947 O   0  0  0  0  0  0  0  0  0  0  0  0
   -5.7405    4.1814    0.5475 C   0  0  0  0  0  0  0  0  0  0  0  0
   -5.5014    3.0292    0.2952 O   0  0  0  0  0  0  0  0  0  0  0  0
   -7.1682    4.7323    0.7522 C   0  0  0  0  0  0  0  0  0  0  0  0
   -7.4216    5.7129   -0.1315 F   0  0  0  0  0  0  0  0  0  0  0  0
   -8.0663    3.7598    0.5853 F   0  0  0  0  0  0  0  0  0  0  0  0
   -7.2986    5.2347    1.9926 F   0  0  0  0  0  0  0  0  0  0  0  0
  1  4  2  0  0  0  0
  2  1  1  0  0  0  0
  3  2  1  0  0  0  0
  4  5  1  0  0  0  0
  5 12  1  0  0  0  0
  6  7  1  0  0  0  0
  6  5  2  0  0  0  0
  8 13  1  0  0  0  0
  8  7  1  0  0  0  0
  8 15  1  0  0  0  0
  9  6  1  0  0  0  0
 10  9  2  0  0  0  0
 10  1  1  0  0  0  0
 11 18  1  0  0  0  0
 14  8  1  0  0  0  0
 16  9  1  0  0  0  0
 17 10  1  0  0  0  0
 19 18  1  0  0  0  0
 19 21  1  0  0  0  0
 20 19  2  0  0  0  0
 21 24  1  0  0  0  0
 22 21  1  0  0  0  0
 23 21  1  0  0  0  0
M  RAD  3   2   2   3   3   4   2
M  END
