Coordinates from ORCA-job 4-MeOPhN2+~CF3COO-_B3LYPG-6-31G_dp-CH-Scan-d09-49-n800
 OpenBabel11261919493D

 24 23  0  0  0  0  0  0  0  0999 V2000
   -1.4384    0.1443   -0.2609 C   0  0  0  0  0  0  0  0  0  0  0  0
   -2.8148    0.1938   -0.3318 N   0  0  0  0  0  0  0  0  0  0  0  0
   -3.9316    0.2944   -0.3819 N   0  0  0  0  0  0  0  0  0  0  0  0
   -0.8369    1.4088   -0.0568 C   0  0  0  0  0  0  0  0  0  0  0  0
    0.5631    1.2647    0.0025 C   0  0  0  0  0  0  0  0  0  0  0  0
    1.2378    0.0411   -0.1240 C   0  0  0  0  0  0  0  0  0  0  0  0
    2.5902    0.0892   -0.0412 O   0  0  0  0  0  0  0  0  0  0  0  0
    3.3486   -1.1085   -0.1565 C   0  0  0  0  0  0  0  0  0  0  0  0
    0.5281   -1.1784   -0.3282 C   0  0  0  0  0  0  0  0  0  0  0  0
   -0.8441   -1.1387   -0.4003 C   0  0  0  0  0  0  0  0  0  0  0  0
   -3.9385    4.7498    0.5547 H   0  0  0  0  0  0  0  0  0  0  0  0
    1.2009    2.1363    0.1564 H   0  0  0  0  0  0  0  0  0  0  0  0
    4.3932   -0.8103   -0.0559 H   0  0  0  0  0  0  0  0  0  0  0  0
    3.2041   -1.5868   -1.1333 H   0  0  0  0  0  0  0  0  0  0  0  0
    3.0998   -1.8225    0.6381 H   0  0  0  0  0  0  0  0  0  0  0  0
    1.0486   -2.1228   -0.4268 H   0  0  0  0  0  0  0  0  0  0  0  0
   -1.4304   -2.0413   -0.5557 H   0  0  0  0  0  0  0  0  0  0  0  0
   -4.8189    5.1406    0.6903 O   0  0  0  0  0  0  0  0  0  0  0  0
   -5.7238    4.1666    0.5451 C   0  0  0  0  0  0  0  0  0  0  0  0
   -5.4998    3.0115    0.2922 O   0  0  0  0  0  0  0  0  0  0  0  0
   -7.1442    4.7351    0.7529 C   0  0  0  0  0  0  0  0  0  0  0  0
   -7.3869    5.7199   -0.1291 F   0  0  0  0  0  0  0  0  0  0  0  0
   -8.0547    3.7742    0.5864 F   0  0  0  0  0  0  0  0  0  0  0  0
   -7.2661    5.2376    1.9942 F   0  0  0  0  0  0  0  0  0  0  0  0
  1  4  2  0  0  0  0
  2  1  1  0  0  0  0
  3  2  1  0  0  0  0
  4  5  1  0  0  0  0
  5 12  1  0  0  0  0
  6  7  1  0  0  0  0
  6  5  2  0  0  0  0
  8 13  1  0  0  0  0
  8  7  1  0  0  0  0
  8 15  1  0  0  0  0
  9  6  1  0  0  0  0
 10  9  2  0  0  0  0
 10  1  1  0  0  0  0
 11 18  1  0  0  0  0
 14  8  1  0  0  0  0
 16  9  1  0  0  0  0
 17 10  1  0  0  0  0
 19 18  1  0  0  0  0
 19 21  1  0  0  0  0
 20 19  2  0  0  0  0
 21 24  1  0  0  0  0
 22 21  1  0  0  0  0
 23 21  1  0  0  0  0
M  RAD  3   2   2   3   3   4   2
M  END
