Coordinates from ORCA-job 4-MeOPhN2+~CF3COO-_B3LYPG-6-31G_dp-CH-Scan-d09-49-n800
 OpenBabel11261919493D

 24 23  0  0  0  0  0  0  0  0999 V2000
   -1.4872    0.1260   -0.2718 C   0  0  0  0  0  0  0  0  0  0  0  0
   -2.8639    0.1497   -0.3499 N   0  0  0  0  0  0  0  0  0  0  0  0
   -3.9820    0.2283   -0.4076 N   0  0  0  0  0  0  0  0  0  0  0  0
   -0.9091    1.4007   -0.0631 C   0  0  0  0  0  0  0  0  0  0  0  0
    0.4927    1.2815    0.0037 C   0  0  0  0  0  0  0  0  0  0  0  0
    1.1900    0.0701   -0.1195 C   0  0  0  0  0  0  0  0  0  0  0  0
    2.5406    0.1421   -0.0280 O   0  0  0  0  0  0  0  0  0  0  0  0
    3.3206   -1.0424   -0.1369 C   0  0  0  0  0  0  0  0  0  0  0  0
    0.5032   -1.1614   -0.3293 C   0  0  0  0  0  0  0  0  0  0  0  0
   -0.8691   -1.1459   -0.4094 C   0  0  0  0  0  0  0  0  0  0  0  0
   -3.8544    4.6282    0.5292 H   0  0  0  0  0  0  0  0  0  0  0  0
    1.1141    2.1642    0.1619 H   0  0  0  0  0  0  0  0  0  0  0  0
    4.3590   -0.7261   -0.0281 H   0  0  0  0  0  0  0  0  0  0  0  0
    3.1921   -1.5232   -1.1146 H   0  0  0  0  0  0  0  0  0  0  0  0
    3.0777   -1.7602    0.6560 H   0  0  0  0  0  0  0  0  0  0  0  0
    1.0409   -2.0963   -0.4262 H   0  0  0  0  0  0  0  0  0  0  0  0
   -1.4383   -2.0586   -0.5697 H   0  0  0  0  0  0  0  0  0  0  0  0
   -4.7185    5.0507    0.6741 O   0  0  0  0  0  0  0  0  0  0  0  0
   -5.6607    4.1122    0.5362 C   0  0  0  0  0  0  0  0  0  0  0  0
   -5.4841    2.9499    0.2787 O   0  0  0  0  0  0  0  0  0  0  0  0
   -7.0564    4.7338    0.7596 C   0  0  0  0  0  0  0  0  0  0  0  0
   -7.2708    5.7287   -0.1187 F   0  0  0  0  0  0  0  0  0  0  0  0
   -8.0046    3.8084    0.6011 F   0  0  0  0  0  0  0  0  0  0  0  0
   -7.1467    5.2384    2.0026 F   0  0  0  0  0  0  0  0  0  0  0  0
  1  4  2  0  0  0  0
  2  1  1  0  0  0  0
  3  2  1  0  0  0  0
  4  5  1  0  0  0  0
  5 12  1  0  0  0  0
  6  7  1  0  0  0  0
  6  5  2  0  0  0  0
  8 13  1  0  0  0  0
  8  7  1  0  0  0  0
  8 15  1  0  0  0  0
  9  6  1  0  0  0  0
 10  9  2  0  0  0  0
 10  1  1  0  0  0  0
 11 18  1  0  0  0  0
 14  8  1  0  0  0  0
 16  9  1  0  0  0  0
 17 10  1  0  0  0  0
 19 18  1  0  0  0  0
 19 21  1  0  0  0  0
 20 19  2  0  0  0  0
 21 24  1  0  0  0  0
 22 21  1  0  0  0  0
 23 21  1  0  0  0  0
M  RAD  3   2   2   3   3   4   2
M  END
