Coordinates from ORCA-job 4-MeOPhN2+~CF3COO-_B3LYPG-6-31G_dp-CH-Scan-d09-49-n800
 OpenBabel11261919493D

 24 23  0  0  0  0  0  0  0  0999 V2000
   -2.2945    0.4797    0.3624 C   0  0  0  0  0  0  0  0  0  0  0  0
   -3.6936    0.3047    0.4398 N   0  0  0  0  0  0  0  0  0  0  0  0
   -4.5506   -0.4244    0.3403 N   0  0  0  0  0  0  0  0  0  0  0  0
   -1.6566    1.6108    0.8827 C   0  0  0  0  0  0  0  0  0  0  0  0
   -0.2794    1.6875    0.8005 C   0  0  0  0  0  0  0  0  0  0  0  0
    0.4631    0.6549    0.1949 C   0  0  0  0  0  0  0  0  0  0  0  0
    1.7970    0.8396    0.1614 O   0  0  0  0  0  0  0  0  0  0  0  0
    2.6222   -0.1501   -0.4512 C   0  0  0  0  0  0  0  0  0  0  0  0
   -0.1961   -0.4754   -0.3250 C   0  0  0  0  0  0  0  0  0  0  0  0
   -1.5775   -0.5658   -0.2364 C   0  0  0  0  0  0  0  0  0  0  0  0
   -2.2807    2.4106    1.3457 H   0  0  0  0  0  0  0  0  0  0  0  0
    0.2543    2.5458    1.1925 H   0  0  0  0  0  0  0  0  0  0  0  0
    3.6424    0.2250   -0.3693 H   0  0  0  0  0  0  0  0  0  0  0  0
    2.3660   -0.2820   -1.5086 H   0  0  0  0  0  0  0  0  0  0  0  0
    2.5453   -1.1108    0.0708 H   0  0  0  0  0  0  0  0  0  0  0  0
    0.3556   -1.2791   -0.7955 H   0  0  0  0  0  0  0  0  0  0  0  0
   -2.1016   -1.4280   -0.6334 H   0  0  0  0  0  0  0  0  0  0  0  0
   -4.3695    2.2181    1.0529 O   0  0  0  0  0  0  0  0  0  0  0  0
   -4.6148    2.7795   -0.0759 C   0  0  0  0  0  0  0  0  0  0  0  0
   -4.3225    2.3950   -1.2050 O   0  0  0  0  0  0  0  0  0  0  0  0
   -5.3445    4.1424    0.0982 C   0  0  0  0  0  0  0  0  0  0  0  0
   -5.7632    4.6408   -1.0740 F   0  0  0  0  0  0  0  0  0  0  0  0
   -6.4154    4.0347    0.9095 F   0  0  0  0  0  0  0  0  0  0  0  0
   -4.5000    5.0453    0.6528 F   0  0  0  0  0  0  0  0  0  0  0  0
  1  2  1  0  0  0  0
  1  4  2  0  0  0  0
  3  2  2  0  0  0  0
  4 11  1  0  0  0  0
  5  4  1  0  0  0  0
  5 12  1  0  0  0  0
  6  5  2  0  0  0  0
  7  6  1  0  0  0  0
  8 13  1  0  0  0  0
  8 15  1  0  0  0  0
  8  7  1  0  0  0  0
  9 10  2  0  0  0  0
  9  6  1  0  0  0  0
 10  1  1  0  0  0  0
 14  8  1  0  0  0  0
 16  9  1  0  0  0  0
 17 10  1  0  0  0  0
 19 21  1  0  0  0  0
 19 18  1  0  0  0  0
 20 19  2  0  0  0  0
 21 24  1  0  0  0  0
 21 23  1  0  0  0  0
 22 21  1  0  0  0  0
M  RAD  2   3   2  18   2
M  END
