Coordinates from ORCA-job 4-MeOPhN2+~CF3COO-_B3LYPG-6-31G_dp-CH-Scan-d09-49-n800
 OpenBabel11261919493D

 24 23  0  0  0  0  0  0  0  0999 V2000
   -2.2259    0.3741   -0.2007 C   0  0  0  0  0  0  0  0  0  0  0  0
   -3.5936    0.1462   -0.3517 N   0  0  0  0  0  0  0  0  0  0  0  0
   -4.5313   -0.4305   -0.5668 N   0  0  0  0  0  0  0  0  0  0  0  0
   -1.6833    1.6270    0.1313 C   0  0  0  0  0  0  0  0  0  0  0  0
   -0.3033    1.6890    0.2385 C   0  0  0  0  0  0  0  0  0  0  0  0
    0.5137    0.5621    0.0289 C   0  0  0  0  0  0  0  0  0  0  0  0
    1.8367    0.7604    0.1669 O   0  0  0  0  0  0  0  0  0  0  0  0
    2.7368   -0.3303   -0.0241 C   0  0  0  0  0  0  0  0  0  0  0  0
   -0.0656   -0.6835   -0.3048 C   0  0  0  0  0  0  0  0  0  0  0  0
   -1.4379   -0.7795   -0.4209 C   0  0  0  0  0  0  0  0  0  0  0  0
   -2.4276    2.6863    0.3346 H   0  0  0  0  0  0  0  0  0  0  0  0
    0.1831    2.6253    0.4927 H   0  0  0  0  0  0  0  0  0  0  0  0
    3.7334    0.0775    0.1448 H   0  0  0  0  0  0  0  0  0  0  0  0
    2.6736   -0.7241   -1.0448 H   0  0  0  0  0  0  0  0  0  0  0  0
    2.5457   -1.1341    0.6956 H   0  0  0  0  0  0  0  0  0  0  0  0
    0.5433   -1.5629   -0.4715 H   0  0  0  0  0  0  0  0  0  0  0  0
   -1.9066   -1.7243   -0.6774 H   0  0  0  0  0  0  0  0  0  0  0  0
   -3.3330    3.8560    0.5656 O   0  0  0  0  0  0  0  0  0  0  0  0
   -4.4605    3.3221    0.4197 C   0  0  0  0  0  0  0  0  0  0  0  0
   -4.7298    2.1308    0.1433 O   0  0  0  0  0  0  0  0  0  0  0  0
   -5.6976    4.2450    0.5952 C   0  0  0  0  0  0  0  0  0  0  0  0
   -6.4052    4.3042   -0.5541 F   0  0  0  0  0  0  0  0  0  0  0  0
   -6.5166    3.7623    1.5543 F   0  0  0  0  0  0  0  0  0  0  0  0
   -5.3633    5.4996    0.9358 F   0  0  0  0  0  0  0  0  0  0  0  0
  1  4  2  0  0  0  0
  2  1  1  0  0  0  0
  3  2  1  0  0  0  0
  4  5  1  0  0  0  0
  4 11  1  0  0  0  0
  5 12  1  0  0  0  0
  6  7  1  0  0  0  0
  6  5  2  0  0  0  0
  8 13  1  0  0  0  0
  8  7  1  0  0  0  0
  8 15  1  0  0  0  0
  9  6  1  0  0  0  0
 10  9  2  0  0  0  0
 10  1  1  0  0  0  0
 14  8  1  0  0  0  0
 16  9  1  0  0  0  0
 17 10  1  0  0  0  0
 19 18  1  0  0  0  0
 19 21  1  0  0  0  0
 20 19  2  0  0  0  0
 21 24  1  0  0  0  0
 21 23  1  0  0  0  0
 22 21  1  0  0  0  0
M  RAD  3   2   2   3   3  18   2
M  END
