Coordinates from ORCA-job 4-MeOPhN2+~CF3COO-_B3LYPG-6-31G_dp-CH-Scan-d09-49-n800
 OpenBabel11261919493D

 24 23  0  0  0  0  0  0  0  0999 V2000
   -2.1723    0.0479   -0.2214 C   0  0  0  0  0  0  0  0  0  0  0  0
   -3.5171   -0.2199   -0.3246 N   0  0  0  0  0  0  0  0  0  0  0  0
   -4.6247   -0.3626   -0.3912 N   0  0  0  0  0  0  0  0  0  0  0  0
   -1.8214    1.3898    0.0591 C   0  0  0  0  0  0  0  0  0  0  0  0
   -0.4407    1.5695    0.1499 C   0  0  0  0  0  0  0  0  0  0  0  0
    0.4885    0.5261   -0.0197 C   0  0  0  0  0  0  0  0  0  0  0  0
    1.7864    0.8656    0.1022 O   0  0  0  0  0  0  0  0  0  0  0  0
    2.7974   -0.1292   -0.0454 C   0  0  0  0  0  0  0  0  0  0  0  0
    0.0560   -0.7969   -0.3016 C   0  0  0  0  0  0  0  0  0  0  0  0
   -1.2939   -1.0470   -0.4056 C   0  0  0  0  0  0  0  0  0  0  0  0
   -2.8408    2.5942    0.2623 H   0  0  0  0  0  0  0  0  0  0  0  0
   -0.0286    2.5533    0.3639 H   0  0  0  0  0  0  0  0  0  0  0  0
    3.7447    0.3890    0.1034 H   0  0  0  0  0  0  0  0  0  0  0  0
    2.7801   -0.5709   -1.0483 H   0  0  0  0  0  0  0  0  0  0  0  0
    2.6937   -0.9192    0.7074 H   0  0  0  0  0  0  0  0  0  0  0  0
    0.7637   -1.6047   -0.4353 H   0  0  0  0  0  0  0  0  0  0  0  0
   -1.6665   -2.0443   -0.6206 H   0  0  0  0  0  0  0  0  0  0  0  0
   -3.4704    3.4979    0.4202 O   0  0  0  0  0  0  0  0  0  0  0  0
   -4.7376    3.2237    0.4154 C   0  0  0  0  0  0  0  0  0  0  0  0
   -5.2889    2.1448    0.2525 O   0  0  0  0  0  0  0  0  0  0  0  0
   -5.5875    4.4975    0.6486 C   0  0  0  0  0  0  0  0  0  0  0  0
   -5.3825    5.3923   -0.3408 F   0  0  0  0  0  0  0  0  0  0  0  0
   -6.8966    4.2128    0.6853 F   0  0  0  0  0  0  0  0  0  0  0  0
   -5.2560    5.0892    1.8145 F   0  0  0  0  0  0  0  0  0  0  0  0
  1  4  2  0  0  0  0
  2  1  1  0  0  0  0
  3  2  1  0  0  0  0
  4  5  1  0  0  0  0
  5 12  1  0  0  0  0
  6  7  1  0  0  0  0
  6  5  2  0  0  0  0
  8  7  1  0  0  0  0
  8 13  1  0  0  0  0
  8 15  1  0  0  0  0
  9  6  1  0  0  0  0
 10  9  2  0  0  0  0
 10  1  1  0  0  0  0
 11 18  1  0  0  0  0
 14  8  1  0  0  0  0
 16  9  1  0  0  0  0
 17 10  1  0  0  0  0
 19 18  1  0  0  0  0
 19 21  1  0  0  0  0
 20 19  2  0  0  0  0
 21 23  1  0  0  0  0
 21 24  1  0  0  0  0
 22 21  1  0  0  0  0
M  RAD  3   2   2   3   3   4   2
M  END
