Coordinates from ORCA-job 4-MeOPhN2+~CF3COO-_B3LYPG-6-31G_dp-CH-Scan-d09-49-n800
 OpenBabel11261919503D

 24 23  0  0  0  0  0  0  0  0999 V2000
   -1.3886    0.1722   -0.2631 C   0  0  0  0  0  0  0  0  0  0  0  0
   -2.7638    0.2516   -0.3331 N   0  0  0  0  0  0  0  0  0  0  0  0
   -3.8781    0.3771   -0.3821 N   0  0  0  0  0  0  0  0  0  0  0  0
   -0.7606    1.4244   -0.0638 C   0  0  0  0  0  0  0  0  0  0  0  0
    0.6361    1.2509   -0.0049 C   0  0  0  0  0  0  0  0  0  0  0  0
    1.2845    0.0129   -0.1281 C   0  0  0  0  0  0  0  0  0  0  0  0
    2.6379    0.0328   -0.0470 O   0  0  0  0  0  0  0  0  0  0  0  0
    3.3708   -1.1808   -0.1615 C   0  0  0  0  0  0  0  0  0  0  0  0
    0.5490   -1.1921   -0.3274 C   0  0  0  0  0  0  0  0  0  0  0  0
   -0.8221   -1.1236   -0.3984 C   0  0  0  0  0  0  0  0  0  0  0  0
   -4.0267    4.8888    0.5443 H   0  0  0  0  0  0  0  0  0  0  0  0
    1.2923    2.1093    0.1458 H   0  0  0  0  0  0  0  0  0  0  0  0
    4.4217   -0.9043   -0.0641 H   0  0  0  0  0  0  0  0  0  0  0  0
    3.2140   -1.6580   -1.1370 H   0  0  0  0  0  0  0  0  0  0  0  0
    3.1093   -1.8878    0.6352 H   0  0  0  0  0  0  0  0  0  0  0  0
    1.0494   -2.1475   -0.4230 H   0  0  0  0  0  0  0  0  0  0  0  0
   -1.4275   -2.0142   -0.5499 H   0  0  0  0  0  0  0  0  0  0  0  0
   -4.9236    5.2383    0.6847 O   0  0  0  0  0  0  0  0  0  0  0  0
   -5.7817    4.2211    0.5495 C   0  0  0  0  0  0  0  0  0  0  0  0
   -5.5033    3.0772    0.3001 O   0  0  0  0  0  0  0  0  0  0  0  0
   -7.2265    4.7213    0.7639 C   0  0  0  0  0  0  0  0  0  0  0  0
   -7.5241    5.6841   -0.1254 F   0  0  0  0  0  0  0  0  0  0  0  0
   -8.0898    3.7152    0.6144 F   0  0  0  0  0  0  0  0  0  0  0  0
   -7.3631    5.2297    2.0013 F   0  0  0  0  0  0  0  0  0  0  0  0
  1  4  2  0  0  0  0
  2  1  1  0  0  0  0
  3  2  1  0  0  0  0
  4  5  1  0  0  0  0
  5 12  1  0  0  0  0
  6  7  1  0  0  0  0
  6  5  2  0  0  0  0
  8 13  1  0  0  0  0
  8  7  1  0  0  0  0
  8 15  1  0  0  0  0
  9  6  1  0  0  0  0
 10  9  2  0  0  0  0
 10  1  1  0  0  0  0
 11 18  1  0  0  0  0
 14  8  1  0  0  0  0
 16  9  1  0  0  0  0
 17 10  1  0  0  0  0
 19 18  1  0  0  0  0
 19 21  1  0  0  0  0
 20 19  2  0  0  0  0
 21 24  1  0  0  0  0
 22 21  1  0  0  0  0
 23 21  1  0  0  0  0
M  RAD  3   2   2   3   3   4   2
M  END
