Coordinates from ORCA-job 4-MeOPhN2+~CF3COO-_B3LYPG-6-31G_dp-CH-Scan-d09-49-n800
 OpenBabel11261919493D

 24 23  0  0  0  0  0  0  0  0999 V2000
   -1.8110    0.0507   -0.1641 C   0  0  0  0  0  0  0  0  0  0  0  0
   -3.1806   -0.0809   -0.2209 N   0  0  0  0  0  0  0  0  0  0  0  0
   -4.2995   -0.1427   -0.2592 N   0  0  0  0  0  0  0  0  0  0  0  0
   -1.3563    1.3632    0.1108 C   0  0  0  0  0  0  0  0  0  0  0  0
    0.0479    1.3962    0.1487 C   0  0  0  0  0  0  0  0  0  0  0  0
    0.8676    0.2748   -0.0584 C   0  0  0  0  0  0  0  0  0  0  0  0
    2.2022    0.4870    0.0161 O   0  0  0  0  0  0  0  0  0  0  0  0
    3.1033   -0.5975   -0.1767 C   0  0  0  0  0  0  0  0  0  0  0  0
    0.3095   -1.0072   -0.3299 C   0  0  0  0  0  0  0  0  0  0  0  0
   -1.0585   -1.1334   -0.3862 C   0  0  0  0  0  0  0  0  0  0  0  0
   -3.3588    3.6815    0.5357 H   0  0  0  0  0  0  0  0  0  0  0  0
    0.5729    2.3301    0.3497 H   0  0  0  0  0  0  0  0  0  0  0  0
    4.1031   -0.1765   -0.0648 H   0  0  0  0  0  0  0  0  0  0  0  0
    3.0057   -1.0300   -1.1798 H   0  0  0  0  0  0  0  0  0  0  0  0
    2.9564   -1.3825    0.5748 H   0  0  0  0  0  0  0  0  0  0  0  0
    0.9387   -1.8733   -0.4906 H   0  0  0  0  0  0  0  0  0  0  0  0
   -1.5302   -2.0912   -0.5914 H   0  0  0  0  0  0  0  0  0  0  0  0
   -4.0822    4.3299    0.6299 O   0  0  0  0  0  0  0  0  0  0  0  0
   -5.2413    3.6946    0.4796 C   0  0  0  0  0  0  0  0  0  0  0  0
   -5.4069    2.5193    0.2657 O   0  0  0  0  0  0  0  0  0  0  0  0
   -6.4111    4.6928    0.6254 C   0  0  0  0  0  0  0  0  0  0  0  0
   -6.2926    5.6919   -0.2670 F   0  0  0  0  0  0  0  0  0  0  0  0
   -7.5771    4.0743    0.4229 F   0  0  0  0  0  0  0  0  0  0  0  0
   -6.4158    5.2274    1.8599 F   0  0  0  0  0  0  0  0  0  0  0  0
  1  4  2  0  0  0  0
  2  1  1  0  0  0  0
  3  2  1  0  0  0  0
  4  5  1  0  0  0  0
  5 12  1  0  0  0  0
  6  7  1  0  0  0  0
  6  5  2  0  0  0  0
  8 13  1  0  0  0  0
  8  7  1  0  0  0  0
  8 15  1  0  0  0  0
  9  6  1  0  0  0  0
 10  9  2  0  0  0  0
 10  1  1  0  0  0  0
 11 18  1  0  0  0  0
 14  8  1  0  0  0  0
 16  9  1  0  0  0  0
 17 10  1  0  0  0  0
 19 21  1  0  0  0  0
 19 18  1  0  0  0  0
 20 19  2  0  0  0  0
 21 24  1  0  0  0  0
 22 21  1  0  0  0  0
 23 21  1  0  0  0  0
M  RAD  3   2   2   3   3   4   2
M  END
