Coordinates from ORCA-job 4-MeOPhN2+~CF3COO-_B3LYPG-6-31G_dp-CH-Scan-d09-49-n800
 OpenBabel11261919493D

 24 23  0  0  0  0  0  0  0  0999 V2000
   -1.9892    0.0404   -0.2035 C   0  0  0  0  0  0  0  0  0  0  0  0
   -3.3468   -0.1656   -0.2870 N   0  0  0  0  0  0  0  0  0  0  0  0
   -4.4586   -0.2908   -0.3459 N   0  0  0  0  0  0  0  0  0  0  0  0
   -1.5958    1.3708    0.0813 C   0  0  0  0  0  0  0  0  0  0  0  0
   -0.1996    1.4781    0.1500 C   0  0  0  0  0  0  0  0  0  0  0  0
    0.6793    0.3979   -0.0393 C   0  0  0  0  0  0  0  0  0  0  0  0
    1.9972    0.6768    0.0664 O   0  0  0  0  0  0  0  0  0  0  0  0
    2.9571   -0.3619   -0.1006 C   0  0  0  0  0  0  0  0  0  0  0  0
    0.1895   -0.9073   -0.3242 C   0  0  0  0  0  0  0  0  0  0  0  0
   -1.1696   -1.0998   -0.4099 C   0  0  0  0  0  0  0  0  0  0  0  0
   -3.1293    3.1592    0.3965 H   0  0  0  0  0  0  0  0  0  0  0  0
    0.2705    2.4371    0.3634 H   0  0  0  0  0  0  0  0  0  0  0  0
    3.9304    0.1090    0.0397 H   0  0  0  0  0  0  0  0  0  0  0  0
    2.9088   -0.7966   -1.1060 H   0  0  0  0  0  0  0  0  0  0  0  0
    2.8274   -1.1532    0.6472 H   0  0  0  0  0  0  0  0  0  0  0  0
    0.8623   -1.7421   -0.4730 H   0  0  0  0  0  0  0  0  0  0  0  0
   -1.5885   -2.0790   -0.6263 H   0  0  0  0  0  0  0  0  0  0  0  0
   -3.7641    3.9084    0.5282 O   0  0  0  0  0  0  0  0  0  0  0  0
   -5.0031    3.4565    0.4525 C   0  0  0  0  0  0  0  0  0  0  0  0
   -5.3684    2.3200    0.2553 O   0  0  0  0  0  0  0  0  0  0  0  0
   -6.0050    4.6170    0.6481 C   0  0  0  0  0  0  0  0  0  0  0  0
   -5.8614    5.5288   -0.3326 F   0  0  0  0  0  0  0  0  0  0  0  0
   -7.2616    4.1623    0.6234 F   0  0  0  0  0  0  0  0  0  0  0  0
   -5.7961    5.2323    1.8266 F   0  0  0  0  0  0  0  0  0  0  0  0
  1  4  2  0  0  0  0
  2  1  1  0  0  0  0
  3  2  1  0  0  0  0
  4  5  1  0  0  0  0
  5 12  1  0  0  0  0
  6  7  1  0  0  0  0
  6  5  2  0  0  0  0
  8 13  1  0  0  0  0
  8  7  1  0  0  0  0
  8 15  1  0  0  0  0
  9  6  1  0  0  0  0
 10  9  2  0  0  0  0
 10  1  1  0  0  0  0
 11 18  1  0  0  0  0
 14  8  1  0  0  0  0
 16  9  1  0  0  0  0
 17 10  1  0  0  0  0
 19 18  1  0  0  0  0
 19 21  1  0  0  0  0
 20 19  2  0  0  0  0
 21 24  1  0  0  0  0
 22 21  1  0  0  0  0
 23 21  1  0  0  0  0
M  RAD  3   2   2   3   3   4   2
M  END
