Coordinates from ORCA-job 4-MeOPhN2+~CF3COO-_B3LYPG-6-31G_dp-CH-Scan-d09-49-n800
 OpenBabel11261919493D

 24 23  0  0  0  0  0  0  0  0999 V2000
   -1.4307    0.1485   -0.2599 C   0  0  0  0  0  0  0  0  0  0  0  0
   -2.8071    0.2027   -0.3300 N   0  0  0  0  0  0  0  0  0  0  0  0
   -3.9236    0.3068   -0.3788 N   0  0  0  0  0  0  0  0  0  0  0  0
   -0.8251    1.4111   -0.0567 C   0  0  0  0  0  0  0  0  0  0  0  0
    0.5745    1.2626    0.0017 C   0  0  0  0  0  0  0  0  0  0  0  0
    1.2452    0.0368   -0.1248 C   0  0  0  0  0  0  0  0  0  0  0  0
    2.5977    0.0806   -0.0431 O   0  0  0  0  0  0  0  0  0  0  0  0
    3.3523   -1.1195   -0.1588 C   0  0  0  0  0  0  0  0  0  0  0  0
    0.5314   -1.1805   -0.3279 C   0  0  0  0  0  0  0  0  0  0  0  0
   -0.8408   -1.1364   -0.3990 C   0  0  0  0  0  0  0  0  0  0  0  0
   -3.9516    4.7700    0.5573 H   0  0  0  0  0  0  0  0  0  0  0  0
    1.2152    2.1322    0.1548 H   0  0  0  0  0  0  0  0  0  0  0  0
    4.3979   -0.8246   -0.0593 H   0  0  0  0  0  0  0  0  0  0  0  0
    3.2053   -1.5976   -1.1354 H   0  0  0  0  0  0  0  0  0  0  0  0
    3.1020   -1.8325    0.6362 H   0  0  0  0  0  0  0  0  0  0  0  0
    1.0488   -2.1266   -0.4264 H   0  0  0  0  0  0  0  0  0  0  0  0
   -1.4301   -2.0373   -0.5536 H   0  0  0  0  0  0  0  0  0  0  0  0
   -4.8347    5.1549    0.6921 O   0  0  0  0  0  0  0  0  0  0  0  0
   -5.7328    4.1746    0.5463 C   0  0  0  0  0  0  0  0  0  0  0  0
   -5.5006    3.0211    0.2940 O   0  0  0  0  0  0  0  0  0  0  0  0
   -7.1572    4.7335    0.7526 C   0  0  0  0  0  0  0  0  0  0  0  0
   -7.4060    5.7159   -0.1305 F   0  0  0  0  0  0  0  0  0  0  0  0
   -8.0610    3.7662    0.5862 F   0  0  0  0  0  0  0  0  0  0  0  0
   -7.2836    5.2362    1.9933 F   0  0  0  0  0  0  0  0  0  0  0  0
  1  4  2  0  0  0  0
  2  1  1  0  0  0  0
  3  2  1  0  0  0  0
  4  5  1  0  0  0  0
  5 12  1  0  0  0  0
  6  7  1  0  0  0  0
  6  5  2  0  0  0  0
  8 13  1  0  0  0  0
  8  7  1  0  0  0  0
  8 15  1  0  0  0  0
  9  6  1  0  0  0  0
 10  9  2  0  0  0  0
 10  1  1  0  0  0  0
 11 18  1  0  0  0  0
 14  8  1  0  0  0  0
 16  9  1  0  0  0  0
 17 10  1  0  0  0  0
 19 18  1  0  0  0  0
 19 21  1  0  0  0  0
 20 19  2  0  0  0  0
 21 24  1  0  0  0  0
 22 21  1  0  0  0  0
 23 21  1  0  0  0  0
M  RAD  3   2   2   3   3   4   2
M  END
