Coordinates from ORCA-job 4-MeOPhN2+~CF3COO-_B3LYPG-6-31G_dp-CH-Scan-d09-49-n800
 OpenBabel11261919493D

 24 23  0  0  0  0  0  0  0  0999 V2000
   -1.6819    0.0609   -0.1476 C   0  0  0  0  0  0  0  0  0  0  0  0
   -3.0573   -0.0156   -0.1877 N   0  0  0  0  0  0  0  0  0  0  0  0
   -4.1789   -0.0259   -0.2113 N   0  0  0  0  0  0  0  0  0  0  0  0
   -1.1833    1.3576    0.1248 C   0  0  0  0  0  0  0  0  0  0  0  0
    0.2235    1.3365    0.1461 C   0  0  0  0  0  0  0  0  0  0  0  0
    0.9996    0.1874   -0.0722 C   0  0  0  0  0  0  0  0  0  0  0  0
    2.3431    0.3505   -0.0130 O   0  0  0  0  0  0  0  0  0  0  0  0
    3.2010   -0.7653   -0.2200 C   0  0  0  0  0  0  0  0  0  0  0  0
    0.3935   -1.0742   -0.3396 C   0  0  0  0  0  0  0  0  0  0  0  0
   -0.9785   -1.1513   -0.3807 C   0  0  0  0  0  0  0  0  0  0  0  0
   -3.5462    4.0482    0.6445 H   0  0  0  0  0  0  0  0  0  0  0  0
    0.7858    2.2502    0.3424 H   0  0  0  0  0  0  0  0  0  0  0  0
    4.2173   -0.3814   -0.1219 H   0  0  0  0  0  0  0  0  0  0  0  0
    3.0738   -1.1927   -1.2222 H   0  0  0  0  0  0  0  0  0  0  0  0
    3.0367   -1.5462    0.5323 H   0  0  0  0  0  0  0  0  0  0  0  0
    0.9901   -1.9616   -0.5090 H   0  0  0  0  0  0  0  0  0  0  0  0
   -1.4872   -2.0911   -0.5821 H   0  0  0  0  0  0  0  0  0  0  0  0
   -4.3312    4.6201    0.7115 O   0  0  0  0  0  0  0  0  0  0  0  0
   -5.4130    3.8670    0.5056 C   0  0  0  0  0  0  0  0  0  0  0  0
   -5.4379    2.6851    0.2752 O   0  0  0  0  0  0  0  0  0  0  0  0
   -6.6852    4.7359    0.6121 C   0  0  0  0  0  0  0  0  0  0  0  0
   -6.6321    5.7582   -0.2593 F   0  0  0  0  0  0  0  0  0  0  0  0
   -7.7697    4.0036    0.3494 F   0  0  0  0  0  0  0  0  0  0  0  0
   -6.7966    5.2429    1.8531 F   0  0  0  0  0  0  0  0  0  0  0  0
  1  4  2  0  0  0  0
  2  1  1  0  0  0  0
  3  2  1  0  0  0  0
  4  5  1  0  0  0  0
  5 12  1  0  0  0  0
  6  7  1  0  0  0  0
  6  5  2  0  0  0  0
  8 13  1  0  0  0  0
  8  7  1  0  0  0  0
  8 15  1  0  0  0  0
  9  6  1  0  0  0  0
 10  9  2  0  0  0  0
 10  1  1  0  0  0  0
 11 18  1  0  0  0  0
 14  8  1  0  0  0  0
 16  9  1  0  0  0  0
 17 10  1  0  0  0  0
 19 21  1  0  0  0  0
 19 18  1  0  0  0  0
 20 19  2  0  0  0  0
 21 24  1  0  0  0  0
 22 21  1  0  0  0  0
 23 21  1  0  0  0  0
M  RAD  3   2   2   3   3   4   2
M  END
