Coordinates from ORCA-job 4-MeOPhN2+~CF3COO-_B3LYPG-6-31G_dp-CH-Scan-d09-49-n800
 OpenBabel11261919493D

 24 23  0  0  0  0  0  0  0  0999 V2000
   -1.6989    0.0589   -0.1497 C   0  0  0  0  0  0  0  0  0  0  0  0
   -3.0737   -0.0250   -0.1920 N   0  0  0  0  0  0  0  0  0  0  0  0
   -4.1951   -0.0426   -0.2169 N   0  0  0  0  0  0  0  0  0  0  0  0
   -1.2064    1.3579    0.1233 C   0  0  0  0  0  0  0  0  0  0  0  0
    0.2003    1.3441    0.1468 C   0  0  0  0  0  0  0  0  0  0  0  0
    0.9824    0.1987   -0.0703 C   0  0  0  0  0  0  0  0  0  0  0  0
    2.3248    0.3686   -0.0090 O   0  0  0  0  0  0  0  0  0  0  0  0
    3.1887   -0.7429   -0.2143 C   0  0  0  0  0  0  0  0  0  0  0  0
    0.3828   -1.0657   -0.3386 C   0  0  0  0  0  0  0  0  0  0  0  0
   -0.9888   -1.1495   -0.3817 C   0  0  0  0  0  0  0  0  0  0  0  0
   -3.5211    3.9991    0.6301 H   0  0  0  0  0  0  0  0  0  0  0  0
    0.7576    2.2606    0.3440 H   0  0  0  0  0  0  0  0  0  0  0  0
    4.2028   -0.3539   -0.1142 H   0  0  0  0  0  0  0  0  0  0  0  0
    3.0656   -1.1709   -1.2167 H   0  0  0  0  0  0  0  0  0  0  0  0
    3.0268   -1.5247    0.5377 H   0  0  0  0  0  0  0  0  0  0  0  0
    0.9839   -1.9501   -0.5072 H   0  0  0  0  0  0  0  0  0  0  0  0
   -1.4925   -2.0917   -0.5840 H   0  0  0  0  0  0  0  0  0  0  0  0
   -4.2977    4.5817    0.7008 O   0  0  0  0  0  0  0  0  0  0  0  0
   -5.3909    3.8440    0.5019 C   0  0  0  0  0  0  0  0  0  0  0  0
   -5.4351    2.6620    0.2732 O   0  0  0  0  0  0  0  0  0  0  0  0
   -6.6498    4.7315    0.6140 C   0  0  0  0  0  0  0  0  0  0  0  0
   -6.5872    5.7506   -0.2607 F   0  0  0  0  0  0  0  0  0  0  0  0
   -7.7466    4.0145    0.3598 F   0  0  0  0  0  0  0  0  0  0  0  0
   -6.7465    5.2435    1.8541 F   0  0  0  0  0  0  0  0  0  0  0  0
  1  4  2  0  0  0  0
  2  1  1  0  0  0  0
  3  2  1  0  0  0  0
  4  5  1  0  0  0  0
  5 12  1  0  0  0  0
  6  7  1  0  0  0  0
  6  5  2  0  0  0  0
  8 13  1  0  0  0  0
  8  7  1  0  0  0  0
  8 15  1  0  0  0  0
  9  6  1  0  0  0  0
 10  9  2  0  0  0  0
 10  1  1  0  0  0  0
 11 18  1  0  0  0  0
 14  8  1  0  0  0  0
 16  9  1  0  0  0  0
 17 10  1  0  0  0  0
 19 21  1  0  0  0  0
 19 18  1  0  0  0  0
 20 19  2  0  0  0  0
 21 24  1  0  0  0  0
 22 21  1  0  0  0  0
 23 21  1  0  0  0  0
M  RAD  3   2   2   3   3   4   2
M  END
