Coordinates from ORCA-job 4-MeOPhN2+~CF3COO-_B3LYPG-6-31G_dp-CH-Scan-d09-49-n800
 OpenBabel11261919493D

 24 23  0  0  0  0  0  0  0  0999 V2000
   -1.4484    0.1406   -0.2623 C   0  0  0  0  0  0  0  0  0  0  0  0
   -2.8250    0.1848   -0.3345 N   0  0  0  0  0  0  0  0  0  0  0  0
   -3.9421    0.2806   -0.3858 N   0  0  0  0  0  0  0  0  0  0  0  0
   -0.8517    1.4071   -0.0566 C   0  0  0  0  0  0  0  0  0  0  0  0
    0.5487    1.2681    0.0039 C   0  0  0  0  0  0  0  0  0  0  0  0
    1.2281    0.0470   -0.1228 C   0  0  0  0  0  0  0  0  0  0  0  0
    2.5801    0.1001   -0.0384 O   0  0  0  0  0  0  0  0  0  0  0  0
    3.3430   -1.0949   -0.1532 C   0  0  0  0  0  0  0  0  0  0  0  0
    0.5230   -1.1748   -0.3286 C   0  0  0  0  0  0  0  0  0  0  0  0
   -0.8493   -1.1401   -0.4021 C   0  0  0  0  0  0  0  0  0  0  0  0
   -3.9209    4.7241    0.5488 H   0  0  0  0  0  0  0  0  0  0  0  0
    1.1832    2.1420    0.1590 H   0  0  0  0  0  0  0  0  0  0  0  0
    4.3864   -0.7930   -0.0509 H   0  0  0  0  0  0  0  0  0  0  0  0
    3.2016   -1.5732   -1.1304 H   0  0  0  0  0  0  0  0  0  0  0  0
    3.0956   -1.8101    0.6408 H   0  0  0  0  0  0  0  0  0  0  0  0
    1.0471   -2.1172   -0.4274 H   0  0  0  0  0  0  0  0  0  0  0  0
   -1.4321   -2.0447   -0.5589 H   0  0  0  0  0  0  0  0  0  0  0  0
   -4.7981    5.1217    0.6862 O   0  0  0  0  0  0  0  0  0  0  0  0
   -5.7110    4.1551    0.5429 C   0  0  0  0  0  0  0  0  0  0  0  0
   -5.4972    2.9981    0.2896 O   0  0  0  0  0  0  0  0  0  0  0  0
   -7.1262    4.7351    0.7539 C   0  0  0  0  0  0  0  0  0  0  0  0
   -7.3627    5.7223   -0.1273 F   0  0  0  0  0  0  0  0  0  0  0  0
   -8.0450    3.7818    0.5888 F   0  0  0  0  0  0  0  0  0  0  0  0
   -7.2416    5.2381    1.9955 F   0  0  0  0  0  0  0  0  0  0  0  0
  1  4  2  0  0  0  0
  2  1  1  0  0  0  0
  3  2  1  0  0  0  0
  4  5  1  0  0  0  0
  5 12  1  0  0  0  0
  6  7  1  0  0  0  0
  6  5  2  0  0  0  0
  8 13  1  0  0  0  0
  8  7  1  0  0  0  0
  8 15  1  0  0  0  0
  9  6  1  0  0  0  0
 10  9  2  0  0  0  0
 10  1  1  0  0  0  0
 11 18  1  0  0  0  0
 14  8  1  0  0  0  0
 16  9  1  0  0  0  0
 17 10  1  0  0  0  0
 19 18  1  0  0  0  0
 19 21  1  0  0  0  0
 20 19  2  0  0  0  0
 21 24  1  0  0  0  0
 22 21  1  0  0  0  0
 23 21  1  0  0  0  0
M  RAD  3   2   2   3   3   4   2
M  END
