Coordinates from ORCA-job 4-MeOPhN2+~CF3COO-_B3LYPG-6-31G_dp-CH-Scan-d09-49-n800
 OpenBabel11261919493D

 24 23  0  0  0  0  0  0  0  0999 V2000
   -1.4522    0.1391   -0.2630 C   0  0  0  0  0  0  0  0  0  0  0  0
   -2.8288    0.1815   -0.3357 N   0  0  0  0  0  0  0  0  0  0  0  0
   -3.9460    0.2762   -0.3874 N   0  0  0  0  0  0  0  0  0  0  0  0
   -0.8573    1.4064   -0.0569 C   0  0  0  0  0  0  0  0  0  0  0  0
    0.5432    1.2694    0.0042 C   0  0  0  0  0  0  0  0  0  0  0  0
    1.2244    0.0492   -0.1223 C   0  0  0  0  0  0  0  0  0  0  0  0
    2.5763    0.1042   -0.0373 O   0  0  0  0  0  0  0  0  0  0  0  0
    3.3409   -1.0897   -0.1518 C   0  0  0  0  0  0  0  0  0  0  0  0
    0.5211   -1.1736   -0.3288 C   0  0  0  0  0  0  0  0  0  0  0  0
   -0.8512   -1.1407   -0.4028 C   0  0  0  0  0  0  0  0  0  0  0  0
   -3.9145    4.7144    0.5467 H   0  0  0  0  0  0  0  0  0  0  0  0
    1.1765    2.1441    0.1598 H   0  0  0  0  0  0  0  0  0  0  0  0
    4.3838   -0.7865   -0.0489 H   0  0  0  0  0  0  0  0  0  0  0  0
    3.2007   -1.5682   -1.1291 H   0  0  0  0  0  0  0  0  0  0  0  0
    3.0940   -1.8053    0.6419 H   0  0  0  0  0  0  0  0  0  0  0  0
    1.0465   -2.1152   -0.4275 H   0  0  0  0  0  0  0  0  0  0  0  0
   -1.4327   -2.0461   -0.5601 H   0  0  0  0  0  0  0  0  0  0  0  0
   -4.7902    5.1146    0.6848 O   0  0  0  0  0  0  0  0  0  0  0  0
   -5.7062    4.1508    0.5422 C   0  0  0  0  0  0  0  0  0  0  0  0
   -5.4959    2.9933    0.2887 O   0  0  0  0  0  0  0  0  0  0  0  0
   -7.1195    4.7351    0.7543 C   0  0  0  0  0  0  0  0  0  0  0  0
   -7.3537    5.7230   -0.1266 F   0  0  0  0  0  0  0  0  0  0  0  0
   -8.0413    3.7845    0.5898 F   0  0  0  0  0  0  0  0  0  0  0  0
   -7.2325    5.2382    1.9961 F   0  0  0  0  0  0  0  0  0  0  0  0
  1  4  2  0  0  0  0
  2  1  1  0  0  0  0
  3  2  1  0  0  0  0
  4  5  1  0  0  0  0
  5 12  1  0  0  0  0
  6  7  1  0  0  0  0
  6  5  2  0  0  0  0
  8 13  1  0  0  0  0
  8  7  1  0  0  0  0
  8 15  1  0  0  0  0
  9  6  1  0  0  0  0
 10  9  2  0  0  0  0
 10  1  1  0  0  0  0
 11 18  1  0  0  0  0
 14  8  1  0  0  0  0
 16  9  1  0  0  0  0
 17 10  1  0  0  0  0
 19 18  1  0  0  0  0
 19 21  1  0  0  0  0
 20 19  2  0  0  0  0
 21 24  1  0  0  0  0
 22 21  1  0  0  0  0
 23 21  1  0  0  0  0
M  RAD  3   2   2   3   3   4   2
M  END
