Coordinates from ORCA-job 4-MeOPhN2+~CF3COO-_B3LYPG-6-31G_dp-CH-Scan-d09-49-n800
 OpenBabel11261919493D

 24 23  0  0  0  0  0  0  0  0999 V2000
   -1.7050    0.0585   -0.1500 C   0  0  0  0  0  0  0  0  0  0  0  0
   -3.0796   -0.0281   -0.1928 N   0  0  0  0  0  0  0  0  0  0  0  0
   -4.2009   -0.0483   -0.2195 N   0  0  0  0  0  0  0  0  0  0  0  0
   -1.2145    1.3581    0.1231 C   0  0  0  0  0  0  0  0  0  0  0  0
    0.1920    1.3470    0.1471 C   0  0  0  0  0  0  0  0  0  0  0  0
    0.9762    0.2029   -0.0697 C   0  0  0  0  0  0  0  0  0  0  0  0
    2.3183    0.3751   -0.0078 O   0  0  0  0  0  0  0  0  0  0  0  0
    3.1842   -0.7350   -0.2127 C   0  0  0  0  0  0  0  0  0  0  0  0
    0.3788   -1.0625   -0.3381 C   0  0  0  0  0  0  0  0  0  0  0  0
   -0.9926   -1.1487   -0.3817 C   0  0  0  0  0  0  0  0  0  0  0  0
   -3.5120    3.9815    0.6258 H   0  0  0  0  0  0  0  0  0  0  0  0
    0.7476    2.2644    0.3445 H   0  0  0  0  0  0  0  0  0  0  0  0
    4.1975   -0.3442   -0.1120 H   0  0  0  0  0  0  0  0  0  0  0  0
    3.0623   -1.1632   -1.2151 H   0  0  0  0  0  0  0  0  0  0  0  0
    3.0232   -1.5170    0.5393 H   0  0  0  0  0  0  0  0  0  0  0  0
    0.9815   -1.9460   -0.5064 H   0  0  0  0  0  0  0  0  0  0  0  0
   -1.4946   -2.0918   -0.5840 H   0  0  0  0  0  0  0  0  0  0  0  0
   -4.2858    4.5679    0.6978 O   0  0  0  0  0  0  0  0  0  0  0  0
   -5.3828    3.8357    0.5007 C   0  0  0  0  0  0  0  0  0  0  0  0
   -5.4337    2.6539    0.2723 O   0  0  0  0  0  0  0  0  0  0  0  0
   -6.6371    4.7296    0.6143 C   0  0  0  0  0  0  0  0  0  0  0  0
   -6.5707    5.7478   -0.2612 F   0  0  0  0  0  0  0  0  0  0  0  0
   -7.7379    4.0181    0.3623 F   0  0  0  0  0  0  0  0  0  0  0  0
   -6.7292    5.2430    1.8542 F   0  0  0  0  0  0  0  0  0  0  0  0
  1  4  2  0  0  0  0
  2  1  1  0  0  0  0
  3  2  1  0  0  0  0
  4  5  1  0  0  0  0
  5 12  1  0  0  0  0
  6  7  1  0  0  0  0
  6  5  2  0  0  0  0
  8 13  1  0  0  0  0
  8  7  1  0  0  0  0
  8 15  1  0  0  0  0
  9  6  1  0  0  0  0
 10  9  2  0  0  0  0
 10  1  1  0  0  0  0
 11 18  1  0  0  0  0
 14  8  1  0  0  0  0
 16  9  1  0  0  0  0
 17 10  1  0  0  0  0
 19 21  1  0  0  0  0
 19 18  1  0  0  0  0
 20 19  2  0  0  0  0
 21 24  1  0  0  0  0
 22 21  1  0  0  0  0
 23 21  1  0  0  0  0
M  RAD  3   2   2   3   3   4   2
M  END
