Coordinates from ORCA-job 4-MeOPhN2+~CF3COO-_B3LYPG-6-31G_dp-CH-Scan-d09-49-n800
 OpenBabel11261919493D

 24 23  0  0  0  0  0  0  0  0999 V2000
   -1.8604    0.0464   -0.1793 C   0  0  0  0  0  0  0  0  0  0  0  0
   -3.2269   -0.1060   -0.2459 N   0  0  0  0  0  0  0  0  0  0  0  0
   -4.3443   -0.1853   -0.2917 N   0  0  0  0  0  0  0  0  0  0  0  0
   -1.4238    1.3645    0.0983 C   0  0  0  0  0  0  0  0  0  0  0  0
   -0.0215    1.4191    0.1470 C   0  0  0  0  0  0  0  0  0  0  0  0
    0.8157    0.3091   -0.0532 C   0  0  0  0  0  0  0  0  0  0  0  0
    2.1459    0.5406    0.0319 O   0  0  0  0  0  0  0  0  0  0  0  0
    3.0644   -0.5311   -0.1519 C   0  0  0  0  0  0  0  0  0  0  0  0
    0.2776   -0.9802   -0.3286 C   0  0  0  0  0  0  0  0  0  0  0  0
   -1.0881   -1.1257   -0.3952 C   0  0  0  0  0  0  0  0  0  0  0  0
   -3.2954    3.5287    0.4862 H   0  0  0  0  0  0  0  0  0  0  0  0
    0.4878    2.3607    0.3517 H   0  0  0  0  0  0  0  0  0  0  0  0
    4.0568   -0.0956   -0.0303 H   0  0  0  0  0  0  0  0  0  0  0  0
    2.9825   -0.9649   -1.1557 H   0  0  0  0  0  0  0  0  0  0  0  0
    2.9213   -1.3177    0.5986 H   0  0  0  0  0  0  0  0  0  0  0  0
    0.9198   -1.8375   -0.4845 H   0  0  0  0  0  0  0  0  0  0  0  0
   -1.5444   -2.0902   -0.6037 H   0  0  0  0  0  0  0  0  0  0  0  0
   -3.9913    4.2082    0.5919 O   0  0  0  0  0  0  0  0  0  0  0  0
   -5.1791    3.6254    0.4750 C   0  0  0  0  0  0  0  0  0  0  0  0
   -5.4057    2.4571    0.2749 O   0  0  0  0  0  0  0  0  0  0  0  0
   -6.2994    4.6768    0.6361 C   0  0  0  0  0  0  0  0  0  0  0  0
   -6.1720    5.6450   -0.2892 F   0  0  0  0  0  0  0  0  0  0  0  0
   -7.4982    4.1054    0.4942 F   0  0  0  0  0  0  0  0  0  0  0  0
   -6.2359    5.2459    1.8535 F   0  0  0  0  0  0  0  0  0  0  0  0
  1  4  2  0  0  0  0
  2  1  1  0  0  0  0
  3  2  1  0  0  0  0
  4  5  1  0  0  0  0
  5 12  1  0  0  0  0
  6  7  1  0  0  0  0
  6  5  2  0  0  0  0
  8 13  1  0  0  0  0
  8  7  1  0  0  0  0
  8 15  1  0  0  0  0
  9  6  1  0  0  0  0
 10  9  2  0  0  0  0
 10  1  1  0  0  0  0
 11 18  1  0  0  0  0
 14  8  1  0  0  0  0
 16  9  1  0  0  0  0
 17 10  1  0  0  0  0
 19 18  1  0  0  0  0
 19 21  1  0  0  0  0
 20 19  2  0  0  0  0
 21 24  1  0  0  0  0
 22 21  1  0  0  0  0
 23 21  1  0  0  0  0
M  RAD  3   2   2   3   3   4   2
M  END
