Coordinates from ORCA-job 4-MeOPhN2+~CF3COO-_B3LYPG-6-31G_dp-CH-Scan-d09-49-n800
 OpenBabel11261919493D

 24 23  0  0  0  0  0  0  0  0999 V2000
   -1.8061    0.0513   -0.1626 C   0  0  0  0  0  0  0  0  0  0  0  0
   -3.1760   -0.0782   -0.2183 N   0  0  0  0  0  0  0  0  0  0  0  0
   -4.2951   -0.1382   -0.2580 N   0  0  0  0  0  0  0  0  0  0  0  0
   -1.3496    1.3630    0.1120 C   0  0  0  0  0  0  0  0  0  0  0  0
    0.0547    1.3940    0.1489 C   0  0  0  0  0  0  0  0  0  0  0  0
    0.8727    0.2715   -0.0589 C   0  0  0  0  0  0  0  0  0  0  0  0
    2.2077    0.4818    0.0146 O   0  0  0  0  0  0  0  0  0  0  0  0
    3.1070   -0.6040   -0.1791 C   0  0  0  0  0  0  0  0  0  0  0  0
    0.3126   -1.0097   -0.3300 C   0  0  0  0  0  0  0  0  0  0  0  0
   -1.0556   -1.1340   -0.3853 C   0  0  0  0  0  0  0  0  0  0  0  0
   -3.3654    3.6958    0.5413 H   0  0  0  0  0  0  0  0  0  0  0  0
    0.5813    2.3272    0.3497 H   0  0  0  0  0  0  0  0  0  0  0  0
    4.1076   -0.1844   -0.0680 H   0  0  0  0  0  0  0  0  0  0  0  0
    3.0079   -1.0363   -1.1822 H   0  0  0  0  0  0  0  0  0  0  0  0
    2.9596   -1.3889    0.5725 H   0  0  0  0  0  0  0  0  0  0  0  0
    0.9405   -1.8767   -0.4913 H   0  0  0  0  0  0  0  0  0  0  0  0
   -1.5288   -2.0911   -0.5902 H   0  0  0  0  0  0  0  0  0  0  0  0
   -4.0914    4.3412    0.6345 O   0  0  0  0  0  0  0  0  0  0  0  0
   -5.2475    3.7011    0.4806 C   0  0  0  0  0  0  0  0  0  0  0  0
   -5.4075    2.5253    0.2653 O   0  0  0  0  0  0  0  0  0  0  0  0
   -6.4218    4.6943    0.6243 C   0  0  0  0  0  0  0  0  0  0  0  0
   -6.3047    5.6950   -0.2666 F   0  0  0  0  0  0  0  0  0  0  0  0
   -7.5847    4.0712    0.4177 F   0  0  0  0  0  0  0  0  0  0  0  0
   -6.4321    5.2273    1.8594 F   0  0  0  0  0  0  0  0  0  0  0  0
  1  4  2  0  0  0  0
  2  1  1  0  0  0  0
  3  2  1  0  0  0  0
  4  5  1  0  0  0  0
  5 12  1  0  0  0  0
  6  7  1  0  0  0  0
  6  5  2  0  0  0  0
  8 13  1  0  0  0  0
  8  7  1  0  0  0  0
  8 15  1  0  0  0  0
  9  6  1  0  0  0  0
 10  9  2  0  0  0  0
 10  1  1  0  0  0  0
 11 18  1  0  0  0  0
 14  8  1  0  0  0  0
 16  9  1  0  0  0  0
 17 10  1  0  0  0  0
 19 21  1  0  0  0  0
 19 18  1  0  0  0  0
 20 19  2  0  0  0  0
 21 24  1  0  0  0  0
 22 21  1  0  0  0  0
 23 21  1  0  0  0  0
M  RAD  3   2   2   3   3   4   2
M  END
