Coordinates from ORCA-job 4-MeOPhN2+~CF3COO-_B3LYPG-6-31G_dp-CH-Scan-d09-49-n800
 OpenBabel11261919493D

 24 23  0  0  0  0  0  0  0  0999 V2000
   -1.6304    0.0726   -0.1418 C   0  0  0  0  0  0  0  0  0  0  0  0
   -3.0075    0.0211   -0.1763 N   0  0  0  0  0  0  0  0  0  0  0  0
   -4.1293    0.0327   -0.1919 N   0  0  0  0  0  0  0  0  0  0  0  0
   -1.1105    1.3614    0.1278 C   0  0  0  0  0  0  0  0  0  0  0  0
    0.2964    1.3153    0.1429 C   0  0  0  0  0  0  0  0  0  0  0  0
    1.0518    0.1532   -0.0781 C   0  0  0  0  0  0  0  0  0  0  0  0
    2.3986    0.2933   -0.0253 O   0  0  0  0  0  0  0  0  0  0  0  0
    3.2360   -0.8369   -0.2368 C   0  0  0  0  0  0  0  0  0  0  0  0
    0.4234   -1.0984   -0.3420 C   0  0  0  0  0  0  0  0  0  0  0  0
   -0.9498   -1.1522   -0.3772 C   0  0  0  0  0  0  0  0  0  0  0  0
   -3.6231    4.2088    0.6887 H   0  0  0  0  0  0  0  0  0  0  0  0
    0.8756    2.2193    0.3362 H   0  0  0  0  0  0  0  0  0  0  0  0
    4.2593   -0.4704   -0.1450 H   0  0  0  0  0  0  0  0  0  0  0  0
    3.0957   -1.2626   -1.2379 H   0  0  0  0  0  0  0  0  0  0  0  0
    3.0631   -1.6148    0.5168 H   0  0  0  0  0  0  0  0  0  0  0  0
    1.0043   -1.9957   -0.5133 H   0  0  0  0  0  0  0  0  0  0  0  0
   -1.4755   -2.0833   -0.5757 H   0  0  0  0  0  0  0  0  0  0  0  0
   -4.4349    4.7428    0.7433 O   0  0  0  0  0  0  0  0  0  0  0  0
   -5.4753    3.9372    0.5169 C   0  0  0  0  0  0  0  0  0  0  0  0
   -5.4356    2.7568    0.2833 O   0  0  0  0  0  0  0  0  0  0  0  0
   -6.7912    4.7404    0.6059 C   0  0  0  0  0  0  0  0  0  0  0  0
   -6.7733    5.7725   -0.2551 F   0  0  0  0  0  0  0  0  0  0  0  0
   -7.8315    3.9566    0.3158 F   0  0  0  0  0  0  0  0  0  0  0  0
   -6.9509    5.2288    1.8490 F   0  0  0  0  0  0  0  0  0  0  0  0
  1  4  2  0  0  0  0
  2  1  1  0  0  0  0
  3  2  1  0  0  0  0
  4  5  1  0  0  0  0
  5 12  1  0  0  0  0
  6  7  1  0  0  0  0
  6  5  2  0  0  0  0
  8 13  1  0  0  0  0
  8  7  1  0  0  0  0
  8 15  1  0  0  0  0
  9  6  1  0  0  0  0
 10  9  2  0  0  0  0
 10  1  1  0  0  0  0
 11 18  1  0  0  0  0
 14  8  1  0  0  0  0
 16  9  1  0  0  0  0
 17 10  1  0  0  0  0
 19 21  1  0  0  0  0
 19 18  1  0  0  0  0
 20 19  2  0  0  0  0
 21 24  1  0  0  0  0
 22 21  1  0  0  0  0
 23 21  1  0  0  0  0
M  RAD  3   2   2   3   3   4   2
M  END
