Coordinates from ORCA-job 4-MeOPhN2+~CF3COO-_B3LYPG-6-31G_dp-CH-Scan-d09-49-n800
 OpenBabel11261919493D

 24 23  0  0  0  0  0  0  0  0999 V2000
   -1.6490    0.0674   -0.1438 C   0  0  0  0  0  0  0  0  0  0  0  0
   -3.0256    0.0067   -0.1801 N   0  0  0  0  0  0  0  0  0  0  0  0
   -4.1474    0.0101   -0.1993 N   0  0  0  0  0  0  0  0  0  0  0  0
   -1.1372    1.3592    0.1269 C   0  0  0  0  0  0  0  0  0  0  0  0
    0.2698    1.3227    0.1443 C   0  0  0  0  0  0  0  0  0  0  0  0
    1.0330    0.1654   -0.0760 C   0  0  0  0  0  0  0  0  0  0  0  0
    2.3786    0.3142   -0.0208 O   0  0  0  0  0  0  0  0  0  0  0  0
    3.2238   -0.8105   -0.2307 C   0  0  0  0  0  0  0  0  0  0  0  0
    0.4130   -1.0900   -0.3413 C   0  0  0  0  0  0  0  0  0  0  0  0
   -0.9598   -1.1526   -0.3786 C   0  0  0  0  0  0  0  0  0  0  0  0
   -3.5955    4.1495    0.6724 H   0  0  0  0  0  0  0  0  0  0  0  0
    0.8425    2.2303    0.3388 H   0  0  0  0  0  0  0  0  0  0  0  0
    4.2445   -0.4374   -0.1365 H   0  0  0  0  0  0  0  0  0  0  0  0
    3.0885   -1.2368   -1.2323 H   0  0  0  0  0  0  0  0  0  0  0  0
    3.0542   -1.5896    0.5223 H   0  0  0  0  0  0  0  0  0  0  0  0
    0.9999   -1.9835   -0.5121 H   0  0  0  0  0  0  0  0  0  0  0  0
   -1.4791   -2.0870   -0.5783 H   0  0  0  0  0  0  0  0  0  0  0  0
   -4.3971    4.6980    0.7317 O   0  0  0  0  0  0  0  0  0  0  0  0
   -5.4533    3.9118    0.5127 C   0  0  0  0  0  0  0  0  0  0  0  0
   -5.4382    2.7303    0.2800 O   0  0  0  0  0  0  0  0  0  0  0  0
   -6.7531    4.7401    0.6083 C   0  0  0  0  0  0  0  0  0  0  0  0
   -6.7217    5.7687   -0.2568 F   0  0  0  0  0  0  0  0  0  0  0  0
   -7.8105    3.9755    0.3286 F   0  0  0  0  0  0  0  0  0  0  0  0
   -6.8947    5.2361    1.8507 F   0  0  0  0  0  0  0  0  0  0  0  0
  1  4  2  0  0  0  0
  2  1  1  0  0  0  0
  3  2  1  0  0  0  0
  4  5  1  0  0  0  0
  5 12  1  0  0  0  0
  6  7  1  0  0  0  0
  6  5  2  0  0  0  0
  8 13  1  0  0  0  0
  8  7  1  0  0  0  0
  8 15  1  0  0  0  0
  9  6  1  0  0  0  0
 10  9  2  0  0  0  0
 10  1  1  0  0  0  0
 11 18  1  0  0  0  0
 14  8  1  0  0  0  0
 16  9  1  0  0  0  0
 17 10  1  0  0  0  0
 19 21  1  0  0  0  0
 19 18  1  0  0  0  0
 20 19  2  0  0  0  0
 21 24  1  0  0  0  0
 22 21  1  0  0  0  0
 23 21  1  0  0  0  0
M  RAD  3   2   2   3   3   4   2
M  END
