Coordinates from ORCA-job 4-MeOPhN2+~CF3COO-_B3LYPG-6-31G_dp-CH-Scan-d09-49-n800
 OpenBabel11261919493D

 24 23  0  0  0  0  0  0  0  0999 V2000
   -1.6134    0.0776   -0.1395 C   0  0  0  0  0  0  0  0  0  0  0  0
   -2.9908    0.0349   -0.1718 N   0  0  0  0  0  0  0  0  0  0  0  0
   -4.1127    0.0541   -0.1856 N   0  0  0  0  0  0  0  0  0  0  0  0
   -1.0857    1.3635    0.1290 C   0  0  0  0  0  0  0  0  0  0  0  0
    0.3211    1.3087    0.1420 C   0  0  0  0  0  0  0  0  0  0  0  0
    1.0691    0.1420   -0.0800 C   0  0  0  0  0  0  0  0  0  0  0  0
    2.4169    0.2739   -0.0296 O   0  0  0  0  0  0  0  0  0  0  0  0
    3.2470   -0.8613   -0.2428 C   0  0  0  0  0  0  0  0  0  0  0  0
    0.4327   -1.1060   -0.3425 C   0  0  0  0  0  0  0  0  0  0  0  0
   -0.9409   -1.1515   -0.3754 C   0  0  0  0  0  0  0  0  0  0  0  0
   -3.6493    4.2642    0.7048 H   0  0  0  0  0  0  0  0  0  0  0  0
    0.9061    2.2091    0.3340 H   0  0  0  0  0  0  0  0  0  0  0  0
    4.2727   -0.5010   -0.1534 H   0  0  0  0  0  0  0  0  0  0  0  0
    3.1019   -1.2864   -1.2437 H   0  0  0  0  0  0  0  0  0  0  0  0
    3.0711   -1.6381    0.5112 H   0  0  0  0  0  0  0  0  0  0  0  0
    1.0080   -2.0068   -0.5144 H   0  0  0  0  0  0  0  0  0  0  0  0
   -1.4725   -2.0794   -0.5727 H   0  0  0  0  0  0  0  0  0  0  0  0
   -4.4703    4.7843    0.7549 O   0  0  0  0  0  0  0  0  0  0  0  0
   -5.4951    3.9606    0.5210 C   0  0  0  0  0  0  0  0  0  0  0  0
   -5.4325    2.7815    0.2863 O   0  0  0  0  0  0  0  0  0  0  0  0
   -6.8257    4.7399    0.6031 C   0  0  0  0  0  0  0  0  0  0  0  0
   -6.8201    5.7752   -0.2543 F   0  0  0  0  0  0  0  0  0  0  0  0
   -7.8495    3.9385    0.3029 F   0  0  0  0  0  0  0  0  0  0  0  0
   -7.0029    5.2210    1.8467 F   0  0  0  0  0  0  0  0  0  0  0  0
  1  4  2  0  0  0  0
  2  1  1  0  0  0  0
  3  2  1  0  0  0  0
  4  5  1  0  0  0  0
  5 12  1  0  0  0  0
  6  7  1  0  0  0  0
  6  5  2  0  0  0  0
  8 13  1  0  0  0  0
  8  7  1  0  0  0  0
  8 15  1  0  0  0  0
  9  6  1  0  0  0  0
 10  9  2  0  0  0  0
 10  1  1  0  0  0  0
 11 18  1  0  0  0  0
 14  8  1  0  0  0  0
 16  9  1  0  0  0  0
 17 10  1  0  0  0  0
 19 21  1  0  0  0  0
 19 18  1  0  0  0  0
 20 19  2  0  0  0  0
 21 24  1  0  0  0  0
 22 21  1  0  0  0  0
 23 21  1  0  0  0  0
M  RAD  3   2   2   3   3   4   2
M  END
