Coordinates from ORCA-job 4-MeOPhN2+~CF3COO-_B3LYPG-6-31G_dp-CH-Scan-d09-49-n800
 OpenBabel11261919493D

 24 23  0  0  0  0  0  0  0  0999 V2000
   -1.7975    0.0513   -0.1613 C   0  0  0  0  0  0  0  0  0  0  0  0
   -3.1678   -0.0749   -0.2156 N   0  0  0  0  0  0  0  0  0  0  0  0
   -4.2871   -0.1312   -0.2540 N   0  0  0  0  0  0  0  0  0  0  0  0
   -1.3384    1.3623    0.1133 C   0  0  0  0  0  0  0  0  0  0  0  0
    0.0663    1.3897    0.1490 C   0  0  0  0  0  0  0  0  0  0  0  0
    0.8815    0.2655   -0.0598 C   0  0  0  0  0  0  0  0  0  0  0  0
    2.2172    0.4727    0.0126 O   0  0  0  0  0  0  0  0  0  0  0  0
    3.1138   -0.6150   -0.1823 C   0  0  0  0  0  0  0  0  0  0  0  0
    0.3184   -1.0145   -0.3308 C   0  0  0  0  0  0  0  0  0  0  0  0
   -1.0500   -1.1357   -0.3850 C   0  0  0  0  0  0  0  0  0  0  0  0
   -3.3772    3.7207    0.5492 H   0  0  0  0  0  0  0  0  0  0  0  0
    0.5953    2.3216    0.3494 H   0  0  0  0  0  0  0  0  0  0  0  0
    4.1155   -0.1977   -0.0721 H   0  0  0  0  0  0  0  0  0  0  0  0
    3.0127   -1.0469   -1.1854 H   0  0  0  0  0  0  0  0  0  0  0  0
    2.9655   -1.3998    0.5693 H   0  0  0  0  0  0  0  0  0  0  0  0
    0.9443   -1.8828   -0.4928 H   0  0  0  0  0  0  0  0  0  0  0  0
   -1.5256   -2.0917   -0.5897 H   0  0  0  0  0  0  0  0  0  0  0  0
   -4.1077    4.3611    0.6406 O   0  0  0  0  0  0  0  0  0  0  0  0
   -5.2592    3.7129    0.4823 C   0  0  0  0  0  0  0  0  0  0  0  0
   -5.4093    2.5365    0.2655 O   0  0  0  0  0  0  0  0  0  0  0  0
   -6.4407    4.6979    0.6231 C   0  0  0  0  0  0  0  0  0  0  0  0
   -6.3273    5.7005   -0.2658 F   0  0  0  0  0  0  0  0  0  0  0  0
   -7.5985    4.0671    0.4117 F   0  0  0  0  0  0  0  0  0  0  0  0
   -6.4589    5.2289    1.8590 F   0  0  0  0  0  0  0  0  0  0  0  0
  1  4  2  0  0  0  0
  2  1  1  0  0  0  0
  3  2  1  0  0  0  0
  4  5  1  0  0  0  0
  5 12  1  0  0  0  0
  6  7  1  0  0  0  0
  6  5  2  0  0  0  0
  8 13  1  0  0  0  0
  8  7  1  0  0  0  0
  8 15  1  0  0  0  0
  9  6  1  0  0  0  0
 10  9  2  0  0  0  0
 10  1  1  0  0  0  0
 11 18  1  0  0  0  0
 14  8  1  0  0  0  0
 16  9  1  0  0  0  0
 17 10  1  0  0  0  0
 19 21  1  0  0  0  0
 19 18  1  0  0  0  0
 20 19  2  0  0  0  0
 21 24  1  0  0  0  0
 22 21  1  0  0  0  0
 23 21  1  0  0  0  0
M  RAD  3   2   2   3   3   4   2
M  END
