Coordinates from ORCA-job 4-MeOPhN2+~CF3COO-_B3LYPG-6-31G_dp-CH-Scan-d09-49-n800
 OpenBabel11261919493D

 24 23  0  0  0  0  0  0  0  0999 V2000
   -2.2896    0.4768    0.3716 C   0  0  0  0  0  0  0  0  0  0  0  0
   -3.6881    0.3046    0.4543 N   0  0  0  0  0  0  0  0  0  0  0  0
   -4.5504   -0.4183    0.3599 N   0  0  0  0  0  0  0  0  0  0  0  0
   -1.6465    1.5996    0.9004 C   0  0  0  0  0  0  0  0  0  0  0  0
   -0.2706    1.6785    0.8176 C   0  0  0  0  0  0  0  0  0  0  0  0
    0.4675    0.6501    0.1988 C   0  0  0  0  0  0  0  0  0  0  0  0
    1.8017    0.8323    0.1628 O   0  0  0  0  0  0  0  0  0  0  0  0
    2.6230   -0.1514   -0.4645 C   0  0  0  0  0  0  0  0  0  0  0  0
   -0.1951   -0.4738   -0.3312 C   0  0  0  0  0  0  0  0  0  0  0  0
   -1.5763   -0.5641   -0.2403 C   0  0  0  0  0  0  0  0  0  0  0  0
   -2.3214    2.4388    1.3958 H   0  0  0  0  0  0  0  0  0  0  0  0
    0.2655    2.5319    1.2166 H   0  0  0  0  0  0  0  0  0  0  0  0
    3.6440    0.2215   -0.3824 H   0  0  0  0  0  0  0  0  0  0  0  0
    2.3623   -0.2707   -1.5223 H   0  0  0  0  0  0  0  0  0  0  0  0
    2.5469   -1.1179    0.0468 H   0  0  0  0  0  0  0  0  0  0  0  0
    0.3545   -1.2733   -0.8115 H   0  0  0  0  0  0  0  0  0  0  0  0
   -2.1025   -1.4217   -0.6446 H   0  0  0  0  0  0  0  0  0  0  0  0
   -4.3692    2.2341    1.0655 O   0  0  0  0  0  0  0  0  0  0  0  0
   -4.6111    2.7801   -0.0711 C   0  0  0  0  0  0  0  0  0  0  0  0
   -4.3134    2.3815   -1.1941 O   0  0  0  0  0  0  0  0  0  0  0  0
   -5.3479    4.1420    0.0817 C   0  0  0  0  0  0  0  0  0  0  0  0
   -5.7443    4.6343   -1.1008 F   0  0  0  0  0  0  0  0  0  0  0  0
   -6.4351    4.0334    0.8711 F   0  0  0  0  0  0  0  0  0  0  0  0
   -4.5186    5.0502    0.6501 F   0  0  0  0  0  0  0  0  0  0  0  0
  1  2  1  0  0  0  0
  1  4  2  0  0  0  0
  3  2  2  0  0  0  0
  4 11  1  0  0  0  0
  5  4  1  0  0  0  0
  5 12  1  0  0  0  0
  6  5  2  0  0  0  0
  7  6  1  0  0  0  0
  8 13  1  0  0  0  0
  8 15  1  0  0  0  0
  8  7  1  0  0  0  0
  9 10  2  0  0  0  0
  9  6  1  0  0  0  0
 10  1  1  0  0  0  0
 14  8  1  0  0  0  0
 16  9  1  0  0  0  0
 17 10  1  0  0  0  0
 19 21  1  0  0  0  0
 19 18  1  0  0  0  0
 20 19  2  0  0  0  0
 21 24  1  0  0  0  0
 21 23  1  0  0  0  0
 22 21  1  0  0  0  0
M  RAD  2   3   2  18   2
M  END
