Coordinates from ORCA-job 4-MeOPhN2+~CF3COO-_B3LYPG-6-31G_dp-CH-Scan-d09-49-n800
 OpenBabel11261919493D

 24 23  0  0  0  0  0  0  0  0999 V2000
   -1.9664    0.0408   -0.2030 C   0  0  0  0  0  0  0  0  0  0  0  0
   -3.3257   -0.1557   -0.2845 N   0  0  0  0  0  0  0  0  0  0  0  0
   -4.4385   -0.2732   -0.3419 N   0  0  0  0  0  0  0  0  0  0  0  0
   -1.5658    1.3693    0.0803 C   0  0  0  0  0  0  0  0  0  0  0  0
   -0.1686    1.4677    0.1472 C   0  0  0  0  0  0  0  0  0  0  0  0
    0.7034    0.3822   -0.0422 C   0  0  0  0  0  0  0  0  0  0  0  0
    2.0235    0.6529    0.0617 O   0  0  0  0  0  0  0  0  0  0  0  0
    2.9765   -0.3918   -0.1058 C   0  0  0  0  0  0  0  0  0  0  0  0
    0.2056   -0.9206   -0.3257 C   0  0  0  0  0  0  0  0  0  0  0  0
   -1.1547   -1.1051   -0.4097 C   0  0  0  0  0  0  0  0  0  0  0  0
   -3.1590    3.2244    0.4058 H   0  0  0  0  0  0  0  0  0  0  0  0
    0.3081    2.4240    0.3592 H   0  0  0  0  0  0  0  0  0  0  0  0
    3.9531    0.0730    0.0330 H   0  0  0  0  0  0  0  0  0  0  0  0
    2.9244   -0.8269   -1.1109 H   0  0  0  0  0  0  0  0  0  0  0  0
    2.8429   -1.1819    0.6426 H   0  0  0  0  0  0  0  0  0  0  0  0
    0.8734   -1.7593   -0.4745 H   0  0  0  0  0  0  0  0  0  0  0  0
   -1.5797   -2.0820   -0.6249 H   0  0  0  0  0  0  0  0  0  0  0  0
   -3.8035    3.9614    0.5351 O   0  0  0  0  0  0  0  0  0  0  0  0
   -5.0352    3.4861    0.4572 C   0  0  0  0  0  0  0  0  0  0  0  0
   -5.3770    2.3429    0.2606 O   0  0  0  0  0  0  0  0  0  0  0  0
   -6.0575    4.6288    0.6500 C   0  0  0  0  0  0  0  0  0  0  0  0
   -5.9242    5.5448   -0.3280 F   0  0  0  0  0  0  0  0  0  0  0  0
   -7.3055    4.1524    0.6181 F   0  0  0  0  0  0  0  0  0  0  0  0
   -5.8644    5.2446    1.8308 F   0  0  0  0  0  0  0  0  0  0  0  0
  1  4  2  0  0  0  0
  2  1  1  0  0  0  0
  3  2  1  0  0  0  0
  4  5  1  0  0  0  0
  5 12  1  0  0  0  0
  6  7  1  0  0  0  0
  6  5  2  0  0  0  0
  8 13  1  0  0  0  0
  8  7  1  0  0  0  0
  8 15  1  0  0  0  0
  9  6  1  0  0  0  0
 10  9  2  0  0  0  0
 10  1  1  0  0  0  0
 11 18  1  0  0  0  0
 14  8  1  0  0  0  0
 16  9  1  0  0  0  0
 17 10  1  0  0  0  0
 19 18  1  0  0  0  0
 19 21  1  0  0  0  0
 20 19  2  0  0  0  0
 21 24  1  0  0  0  0
 22 21  1  0  0  0  0
 23 21  1  0  0  0  0
M  RAD  3   2   2   3   3   4   2
M  END
