Coordinates from ORCA-job 4-MeOPhN2+~CF3COO-_B3LYPG-6-31G_dp-CH-Scan-d09-49-n800
 OpenBabel11261919493D

 24 23  0  0  0  0  0  0  0  0999 V2000
   -2.1398    0.0414   -0.2163 C   0  0  0  0  0  0  0  0  0  0  0  0
   -3.4854   -0.2229   -0.3163 N   0  0  0  0  0  0  0  0  0  0  0  0
   -4.5911   -0.3821   -0.3852 N   0  0  0  0  0  0  0  0  0  0  0  0
   -1.7887    1.3836    0.0679 C   0  0  0  0  0  0  0  0  0  0  0  0
   -0.4031    1.5494    0.1532 C   0  0  0  0  0  0  0  0  0  0  0  0
    0.5198    0.5024   -0.0226 C   0  0  0  0  0  0  0  0  0  0  0  0
    1.8214    0.8339    0.0961 O   0  0  0  0  0  0  0  0  0  0  0  0
    2.8251   -0.1665   -0.0572 C   0  0  0  0  0  0  0  0  0  0  0  0
    0.0809   -0.8187   -0.3076 C   0  0  0  0  0  0  0  0  0  0  0  0
   -1.2700   -1.0611   -0.4077 C   0  0  0  0  0  0  0  0  0  0  0  0
   -2.9134    2.7192    0.2975 H   0  0  0  0  0  0  0  0  0  0  0  0
    0.0205    2.5285    0.3689 H   0  0  0  0  0  0  0  0  0  0  0  0
    3.7765    0.3448    0.0905 H   0  0  0  0  0  0  0  0  0  0  0  0
    2.8030   -0.6056   -1.0613 H   0  0  0  0  0  0  0  0  0  0  0  0
    2.7191   -0.9585    0.6933 H   0  0  0  0  0  0  0  0  0  0  0  0
    0.7845   -1.6294   -0.4462 H   0  0  0  0  0  0  0  0  0  0  0  0
   -1.6490   -2.0558   -0.6247 H   0  0  0  0  0  0  0  0  0  0  0  0
   -3.5173    3.5704    0.4478 O   0  0  0  0  0  0  0  0  0  0  0  0
   -4.7862    3.2662    0.4230 C   0  0  0  0  0  0  0  0  0  0  0  0
   -5.3028    2.1772    0.2491 O   0  0  0  0  0  0  0  0  0  0  0  0
   -5.6571    4.5257    0.6465 C   0  0  0  0  0  0  0  0  0  0  0  0
   -5.4556    5.4207   -0.3420 F   0  0  0  0  0  0  0  0  0  0  0  0
   -6.9591    4.2140    0.6688 F   0  0  0  0  0  0  0  0  0  0  0  0
   -5.3470    5.1218    1.8148 F   0  0  0  0  0  0  0  0  0  0  0  0
  1  4  2  0  0  0  0
  2  1  1  0  0  0  0
  3  2  1  0  0  0  0
  4  5  1  0  0  0  0
  5 12  1  0  0  0  0
  6  7  1  0  0  0  0
  6  5  2  0  0  0  0
  8 13  1  0  0  0  0
  8  7  1  0  0  0  0
  8 15  1  0  0  0  0
  9  6  1  0  0  0  0
 10  9  2  0  0  0  0
 10  1  1  0  0  0  0
 11 18  1  0  0  0  0
 14  8  1  0  0  0  0
 16  9  1  0  0  0  0
 17 10  1  0  0  0  0
 19 18  1  0  0  0  0
 19 21  1  0  0  0  0
 20 19  2  0  0  0  0
 21 23  1  0  0  0  0
 21 24  1  0  0  0  0
 22 21  1  0  0  0  0
M  RAD  3   2   2   3   3   4   2
M  END
