Coordinates from ORCA-job 4-MeOPhN2+~CF3COO-_B3LYPG-6-31G_dp-CH-Scan-d09-49-n800
 OpenBabel11261919493D

 24 23  0  0  0  0  0  0  0  0999 V2000
   -1.7619    0.0544   -0.1568 C   0  0  0  0  0  0  0  0  0  0  0  0
   -3.1341   -0.0564   -0.2070 N   0  0  0  0  0  0  0  0  0  0  0  0
   -4.2543   -0.1000   -0.2386 N   0  0  0  0  0  0  0  0  0  0  0  0
   -1.2905    1.3608    0.1177 C   0  0  0  0  0  0  0  0  0  0  0  0
    0.1150    1.3732    0.1488 C   0  0  0  0  0  0  0  0  0  0  0  0
    0.9182    0.2412   -0.0634 C   0  0  0  0  0  0  0  0  0  0  0  0
    2.2566    0.4347    0.0050 O   0  0  0  0  0  0  0  0  0  0  0  0
    3.1412   -0.6617   -0.1941 C   0  0  0  0  0  0  0  0  0  0  0  0
    0.3417   -1.0331   -0.3340 C   0  0  0  0  0  0  0  0  0  0  0  0
   -1.0280   -1.1406   -0.3841 C   0  0  0  0  0  0  0  0  0  0  0  0
   -3.4278    3.8232    0.5789 H   0  0  0  0  0  0  0  0  0  0  0  0
    0.6544    2.2995    0.3484 H   0  0  0  0  0  0  0  0  0  0  0  0
    4.1475   -0.2548   -0.0875 H   0  0  0  0  0  0  0  0  0  0  0  0
    3.0321   -1.0919   -1.1971 H   0  0  0  0  0  0  0  0  0  0  0  0
    2.9879   -1.4457    0.5573 H   0  0  0  0  0  0  0  0  0  0  0  0
    0.9586   -1.9072   -0.4988 H   0  0  0  0  0  0  0  0  0  0  0  0
   -1.5140   -2.0916   -0.5884 H   0  0  0  0  0  0  0  0  0  0  0  0
   -4.1755    4.4426    0.6624 O   0  0  0  0  0  0  0  0  0  0  0  0
   -5.3063    3.7604    0.4891 C   0  0  0  0  0  0  0  0  0  0  0  0
   -5.4172    2.5807    0.2677 O   0  0  0  0  0  0  0  0  0  0  0  0
   -6.5174    4.7100    0.6195 C   0  0  0  0  0  0  0  0  0  0  0  0
   -6.4226    5.7189   -0.2643 F   0  0  0  0  0  0  0  0  0  0  0  0
   -7.6536    4.0467    0.3924 F   0  0  0  0  0  0  0  0  0  0  0  0
   -6.5646    5.2350    1.8571 F   0  0  0  0  0  0  0  0  0  0  0  0
  1  4  2  0  0  0  0
  2  1  1  0  0  0  0
  3  2  1  0  0  0  0
  4  5  1  0  0  0  0
  5 12  1  0  0  0  0
  6  7  1  0  0  0  0
  6  5  2  0  0  0  0
  8 13  1  0  0  0  0
  8  7  1  0  0  0  0
  8 15  1  0  0  0  0
  9  6  1  0  0  0  0
 10  9  2  0  0  0  0
 10  1  1  0  0  0  0
 11 18  1  0  0  0  0
 14  8  1  0  0  0  0
 16  9  1  0  0  0  0
 17 10  1  0  0  0  0
 19 21  1  0  0  0  0
 19 18  1  0  0  0  0
 20 19  2  0  0  0  0
 21 24  1  0  0  0  0
 22 21  1  0  0  0  0
 23 21  1  0  0  0  0
M  RAD  3   2   2   3   3   4   2
M  END
