Coordinates from ORCA-job 4-MeOPhN2+~CF3COO-_B3LYPG-6-31G_dp-CH-Scan-d09-49-n800
 OpenBabel11261919493D

 24 23  0  0  0  0  0  0  0  0999 V2000
   -2.0761    0.0375   -0.2052 C   0  0  0  0  0  0  0  0  0  0  0  0
   -3.4265   -0.2049   -0.2968 N   0  0  0  0  0  0  0  0  0  0  0  0
   -4.5344   -0.3546   -0.3611 N   0  0  0  0  0  0  0  0  0  0  0  0
   -1.7100    1.3751    0.0842 C   0  0  0  0  0  0  0  0  0  0  0  0
   -0.3189    1.5164    0.1599 C   0  0  0  0  0  0  0  0  0  0  0  0
    0.5867    0.4574   -0.0279 C   0  0  0  0  0  0  0  0  0  0  0  0
    1.8956    0.7682    0.0840 O   0  0  0  0  0  0  0  0  0  0  0  0
    2.8819   -0.2467   -0.0810 C   0  0  0  0  0  0  0  0  0  0  0  0
    0.1280   -0.8570   -0.3173 C   0  0  0  0  0  0  0  0  0  0  0  0
   -1.2263   -1.0798   -0.4093 C   0  0  0  0  0  0  0  0  0  0  0  0
   -3.0134    2.9093    0.3559 H   0  0  0  0  0  0  0  0  0  0  0  0
    0.1249    2.4864    0.3778 H   0  0  0  0  0  0  0  0  0  0  0  0
    3.8424    0.2482    0.0640 H   0  0  0  0  0  0  0  0  0  0  0  0
    2.8476   -0.6801   -1.0873 H   0  0  0  0  0  0  0  0  0  0  0  0
    2.7683   -1.0418    0.6653 H   0  0  0  0  0  0  0  0  0  0  0  0
    0.8198   -1.6763   -0.4649 H   0  0  0  0  0  0  0  0  0  0  0  0
   -1.6214   -2.0678   -0.6294 H   0  0  0  0  0  0  0  0  0  0  0  0
   -3.6191    3.7086    0.4973 O   0  0  0  0  0  0  0  0  0  0  0  0
   -4.8804    3.3463    0.4343 C   0  0  0  0  0  0  0  0  0  0  0  0
   -5.3347    2.2383    0.2388 O   0  0  0  0  0  0  0  0  0  0  0  0
   -5.8032    4.5697    0.6413 C   0  0  0  0  0  0  0  0  0  0  0  0
   -5.6179    5.4694   -0.3448 F   0  0  0  0  0  0  0  0  0  0  0  0
   -7.0889    4.2006    0.6383 F   0  0  0  0  0  0  0  0  0  0  0  0
   -5.5383    5.1760    1.8141 F   0  0  0  0  0  0  0  0  0  0  0  0
  1  4  2  0  0  0  0
  2  1  1  0  0  0  0
  3  2  1  0  0  0  0
  4  5  1  0  0  0  0
  5 12  1  0  0  0  0
  6  7  1  0  0  0  0
  6  5  2  0  0  0  0
  8 13  1  0  0  0  0
  8  7  1  0  0  0  0
  8 15  1  0  0  0  0
  9  6  1  0  0  0  0
 10  9  2  0  0  0  0
 10  1  1  0  0  0  0
 11 18  1  0  0  0  0
 14  8  1  0  0  0  0
 16  9  1  0  0  0  0
 17 10  1  0  0  0  0
 19 18  1  0  0  0  0
 19 21  1  0  0  0  0
 20 19  2  0  0  0  0
 21 24  1  0  0  0  0
 22 21  1  0  0  0  0
 23 21  1  0  0  0  0
M  RAD  3   2   2   3   3   4   2
M  END
