Coordinates from ORCA-job 4-MeOPhN2+~CF3COO-_B3LYPG-6-31G_dp-CH-Scan-d09-49-n800
 OpenBabel11261919493D

 24 23  0  0  0  0  0  0  0  0999 V2000
   -2.1815    0.0550   -0.2199 C   0  0  0  0  0  0  0  0  0  0  0  0
   -3.5297   -0.1996   -0.3204 N   0  0  0  0  0  0  0  0  0  0  0  0
   -4.6445   -0.2841   -0.3740 N   0  0  0  0  0  0  0  0  0  0  0  0
   -1.8204    1.3926    0.0593 C   0  0  0  0  0  0  0  0  0  0  0  0
   -0.4442    1.5803    0.1518 C   0  0  0  0  0  0  0  0  0  0  0  0
    0.4838    0.5346   -0.0176 C   0  0  0  0  0  0  0  0  0  0  0  0
    1.7807    0.8738    0.1040 O   0  0  0  0  0  0  0  0  0  0  0  0
    2.7920   -0.1213   -0.0440 C   0  0  0  0  0  0  0  0  0  0  0  0
    0.0485   -0.7867   -0.2986 C   0  0  0  0  0  0  0  0  0  0  0  0
   -1.3025   -1.0366   -0.4027 C   0  0  0  0  0  0  0  0  0  0  0  0
   -2.7838    2.5019    0.2435 H   0  0  0  0  0  0  0  0  0  0  0  0
   -0.0376    2.5659    0.3653 H   0  0  0  0  0  0  0  0  0  0  0  0
    3.7390    0.3973    0.1043 H   0  0  0  0  0  0  0  0  0  0  0  0
    2.7737   -0.5627   -1.0469 H   0  0  0  0  0  0  0  0  0  0  0  0
    2.6881   -0.9107    0.7092 H   0  0  0  0  0  0  0  0  0  0  0  0
    0.7553   -1.5954   -0.4317 H   0  0  0  0  0  0  0  0  0  0  0  0
   -1.6754   -2.0337   -0.6169 H   0  0  0  0  0  0  0  0  0  0  0  0
   -3.4666    3.4590    0.4092 O   0  0  0  0  0  0  0  0  0  0  0  0
   -4.7283    3.2019    0.4060 C   0  0  0  0  0  0  0  0  0  0  0  0
   -5.3050    2.1305    0.2410 O   0  0  0  0  0  0  0  0  0  0  0  0
   -5.5723    4.4805    0.6470 C   0  0  0  0  0  0  0  0  0  0  0  0
   -5.3655    5.3791   -0.3399 F   0  0  0  0  0  0  0  0  0  0  0  0
   -6.8853    4.2096    0.6885 F   0  0  0  0  0  0  0  0  0  0  0  0
   -5.2330    5.0677    1.8138 F   0  0  0  0  0  0  0  0  0  0  0  0
  1  4  2  0  0  0  0
  2  1  1  0  0  0  0
  3  2  1  0  0  0  0
  4  5  1  0  0  0  0
  5 12  1  0  0  0  0
  6  7  1  0  0  0  0
  6  5  2  0  0  0  0
  8  7  1  0  0  0  0
  8 13  1  0  0  0  0
  8 15  1  0  0  0  0
  9  6  1  0  0  0  0
 10  9  2  0  0  0  0
 10  1  1  0  0  0  0
 11 18  1  0  0  0  0
 14  8  1  0  0  0  0
 16  9  1  0  0  0  0
 17 10  1  0  0  0  0
 19 18  1  0  0  0  0
 19 21  1  0  0  0  0
 20 19  2  0  0  0  0
 21 23  1  0  0  0  0
 21 24  1  0  0  0  0
 22 21  1  0  0  0  0
M  RAD  3   2   2   3   3   4   2
M  END
