Coordinates from ORCA-job 4-MeOPhN2+~CF3COO-_B3LYPG-6-31G_dp-CH-Scan-d09-49-n800
 OpenBabel11261919493D

 24 23  0  0  0  0  0  0  0  0999 V2000
   -1.9563    0.0411   -0.2027 C   0  0  0  0  0  0  0  0  0  0  0  0
   -3.3162   -0.1512   -0.2834 N   0  0  0  0  0  0  0  0  0  0  0  0
   -4.4296   -0.2651   -0.3401 N   0  0  0  0  0  0  0  0  0  0  0  0
   -1.5525    1.3686    0.0799 C   0  0  0  0  0  0  0  0  0  0  0  0
   -0.1547    1.4631    0.1461 C   0  0  0  0  0  0  0  0  0  0  0  0
    0.7142    0.3751   -0.0435 C   0  0  0  0  0  0  0  0  0  0  0  0
    2.0352    0.6422    0.0597 O   0  0  0  0  0  0  0  0  0  0  0  0
    2.9851   -0.4051   -0.1082 C   0  0  0  0  0  0  0  0  0  0  0  0
    0.2127   -0.9265   -0.3263 C   0  0  0  0  0  0  0  0  0  0  0  0
   -1.1480   -1.1075   -0.4096 C   0  0  0  0  0  0  0  0  0  0  0  0
   -3.1723    3.2533    0.4101 H   0  0  0  0  0  0  0  0  0  0  0  0
    0.3249    2.4181    0.3575 H   0  0  0  0  0  0  0  0  0  0  0  0
    3.9631    0.0570    0.0299 H   0  0  0  0  0  0  0  0  0  0  0  0
    2.9313   -0.8404   -1.1132 H   0  0  0  0  0  0  0  0  0  0  0  0
    2.8499   -1.1948    0.6404 H   0  0  0  0  0  0  0  0  0  0  0  0
    0.8783   -1.7670   -0.4752 H   0  0  0  0  0  0  0  0  0  0  0  0
   -1.5758   -2.0833   -0.6243 H   0  0  0  0  0  0  0  0  0  0  0  0
   -3.8212    3.9849    0.5382 O   0  0  0  0  0  0  0  0  0  0  0  0
   -5.0494    3.4992    0.4592 C   0  0  0  0  0  0  0  0  0  0  0  0
   -5.3808    2.3532    0.2629 O   0  0  0  0  0  0  0  0  0  0  0  0
   -6.0808    4.6340    0.6507 C   0  0  0  0  0  0  0  0  0  0  0  0
   -5.9520    5.5517   -0.3261 F   0  0  0  0  0  0  0  0  0  0  0  0
   -7.3249    4.1480    0.6156 F   0  0  0  0  0  0  0  0  0  0  0  0
   -5.8947    5.2498    1.8326 F   0  0  0  0  0  0  0  0  0  0  0  0
  1  4  2  0  0  0  0
  2  1  1  0  0  0  0
  3  2  1  0  0  0  0
  4  5  1  0  0  0  0
  5 12  1  0  0  0  0
  6  7  1  0  0  0  0
  6  5  2  0  0  0  0
  8 13  1  0  0  0  0
  8  7  1  0  0  0  0
  8 15  1  0  0  0  0
  9  6  1  0  0  0  0
 10  9  2  0  0  0  0
 10  1  1  0  0  0  0
 11 18  1  0  0  0  0
 14  8  1  0  0  0  0
 16  9  1  0  0  0  0
 17 10  1  0  0  0  0
 19 18  1  0  0  0  0
 19 21  1  0  0  0  0
 20 19  2  0  0  0  0
 21 24  1  0  0  0  0
 22 21  1  0  0  0  0
 23 21  1  0  0  0  0
M  RAD  3   2   2   3   3   4   2
M  END
