Coordinates from ORCA-job 4-MeOPhN2+~CF3COO-_B3LYPG-6-31G_dp-CH-Scan-d09-49-n800
 OpenBabel11261919493D

 24 23  0  0  0  0  0  0  0  0999 V2000
   -2.0335    0.0388   -0.2043 C   0  0  0  0  0  0  0  0  0  0  0  0
   -3.3875   -0.1857   -0.2920 N   0  0  0  0  0  0  0  0  0  0  0  0
   -4.4973   -0.3243   -0.3539 N   0  0  0  0  0  0  0  0  0  0  0  0
   -1.6542    1.3729    0.0834 C   0  0  0  0  0  0  0  0  0  0  0  0
   -0.2604    1.4976    0.1557 C   0  0  0  0  0  0  0  0  0  0  0  0
    0.6322    0.4283   -0.0333 C   0  0  0  0  0  0  0  0  0  0  0  0
    1.9456    0.7234    0.0756 O   0  0  0  0  0  0  0  0  0  0  0  0
    2.9190   -0.3031   -0.0907 C   0  0  0  0  0  0  0  0  0  0  0  0
    0.1583   -0.8817   -0.3211 C   0  0  0  0  0  0  0  0  0  0  0  0
   -1.1984   -1.0898   -0.4101 C   0  0  0  0  0  0  0  0  0  0  0  0
   -3.0715    3.0318    0.3772 H   0  0  0  0  0  0  0  0  0  0  0  0
    0.1964    2.4622    0.3719 H   0  0  0  0  0  0  0  0  0  0  0  0
    3.8860    0.1800    0.0522 H   0  0  0  0  0  0  0  0  0  0  0  0
    2.8779   -0.7368   -1.0968 H   0  0  0  0  0  0  0  0  0  0  0  0
    2.7975   -1.0967    0.6560 H   0  0  0  0  0  0  0  0  0  0  0  0
    0.8409   -1.7085   -0.4696 H   0  0  0  0  0  0  0  0  0  0  0  0
   -1.6051   -2.0735   -0.6288 H   0  0  0  0  0  0  0  0  0  0  0  0
   -3.6893    3.8057    0.5136 O   0  0  0  0  0  0  0  0  0  0  0  0
   -4.9410    3.3999    0.4435 C   0  0  0  0  0  0  0  0  0  0  0  0
   -5.3522    2.2774    0.2467 O   0  0  0  0  0  0  0  0  0  0  0  0
   -5.9023    4.5937    0.6443 C   0  0  0  0  0  0  0  0  0  0  0  0
   -5.7379    5.4980   -0.3406 F   0  0  0  0  0  0  0  0  0  0  0  0
   -7.1745    4.1825    0.6324 F   0  0  0  0  0  0  0  0  0  0  0  0
   -5.6635    5.2066    1.8188 F   0  0  0  0  0  0  0  0  0  0  0  0
  1  4  2  0  0  0  0
  2  1  1  0  0  0  0
  3  2  1  0  0  0  0
  4  5  1  0  0  0  0
  5 12  1  0  0  0  0
  6  7  1  0  0  0  0
  6  5  2  0  0  0  0
  8 13  1  0  0  0  0
  8  7  1  0  0  0  0
  8 15  1  0  0  0  0
  9  6  1  0  0  0  0
 10  9  2  0  0  0  0
 10  1  1  0  0  0  0
 11 18  1  0  0  0  0
 14  8  1  0  0  0  0
 16  9  1  0  0  0  0
 17 10  1  0  0  0  0
 19 18  1  0  0  0  0
 19 21  1  0  0  0  0
 20 19  2  0  0  0  0
 21 24  1  0  0  0  0
 22 21  1  0  0  0  0
 23 21  1  0  0  0  0
M  RAD  3   2   2   3   3   4   2
M  END
