Coordinates from ORCA-job 4-MeOPhN2+~CF3COO-_B3LYPG-6-31G_dp-CH-Scan-d09-49-n800
 OpenBabel11261919493D

 24 23  0  0  0  0  0  0  0  0999 V2000
   -1.7122    0.0572   -0.1504 C   0  0  0  0  0  0  0  0  0  0  0  0
   -3.0864   -0.0330   -0.1939 N   0  0  0  0  0  0  0  0  0  0  0  0
   -4.2076   -0.0554   -0.2227 N   0  0  0  0  0  0  0  0  0  0  0  0
   -1.2246    1.3580    0.1227 C   0  0  0  0  0  0  0  0  0  0  0  0
    0.1819    1.3501    0.1474 C   0  0  0  0  0  0  0  0  0  0  0  0
    0.9688    0.2077   -0.0689 C   0  0  0  0  0  0  0  0  0  0  0  0
    2.3104    0.3829   -0.0065 O   0  0  0  0  0  0  0  0  0  0  0  0
    3.1789   -0.7253   -0.2107 C   0  0  0  0  0  0  0  0  0  0  0  0
    0.3744   -1.0590   -0.3375 C   0  0  0  0  0  0  0  0  0  0  0  0
   -0.9968   -1.1483   -0.3816 C   0  0  0  0  0  0  0  0  0  0  0  0
   -3.5011    3.9604    0.6208 H   0  0  0  0  0  0  0  0  0  0  0  0
    0.7354    2.2687    0.3450 H   0  0  0  0  0  0  0  0  0  0  0  0
    4.1913   -0.3322   -0.1096 H   0  0  0  0  0  0  0  0  0  0  0  0
    3.0586   -1.1538   -1.2132 H   0  0  0  0  0  0  0  0  0  0  0  0
    3.0192   -1.5075    0.5412 H   0  0  0  0  0  0  0  0  0  0  0  0
    0.9791   -1.9412   -0.5053 H   0  0  0  0  0  0  0  0  0  0  0  0
   -1.4965   -2.0926   -0.5841 H   0  0  0  0  0  0  0  0  0  0  0  0
   -4.2716    4.5513    0.6945 O   0  0  0  0  0  0  0  0  0  0  0  0
   -5.3736    3.8263    0.4994 C   0  0  0  0  0  0  0  0  0  0  0  0
   -5.4322    2.6449    0.2713 O   0  0  0  0  0  0  0  0  0  0  0  0
   -6.6221    4.7280    0.6146 C   0  0  0  0  0  0  0  0  0  0  0  0
   -6.5510    5.7454   -0.2615 F   0  0  0  0  0  0  0  0  0  0  0  0
   -7.7278    4.0232    0.3649 F   0  0  0  0  0  0  0  0  0  0  0  0
   -6.7090    5.2426    1.8544 F   0  0  0  0  0  0  0  0  0  0  0  0
  1  4  2  0  0  0  0
  2  1  1  0  0  0  0
  3  2  1  0  0  0  0
  4  5  1  0  0  0  0
  5 12  1  0  0  0  0
  6  7  1  0  0  0  0
  6  5  2  0  0  0  0
  8 13  1  0  0  0  0
  8  7  1  0  0  0  0
  8 15  1  0  0  0  0
  9  6  1  0  0  0  0
 10  9  2  0  0  0  0
 10  1  1  0  0  0  0
 11 18  1  0  0  0  0
 14  8  1  0  0  0  0
 16  9  1  0  0  0  0
 17 10  1  0  0  0  0
 19 21  1  0  0  0  0
 19 18  1  0  0  0  0
 20 19  2  0  0  0  0
 21 24  1  0  0  0  0
 22 21  1  0  0  0  0
 23 21  1  0  0  0  0
M  RAD  3   2   2   3   3   4   2
M  END
