Coordinates from ORCA-job 4-MeOPhN2+~CF3COO-_B3LYPG-6-31G_dp-CH-Scan-d09-49-n800
 OpenBabel11261919493D

 24 23  0  0  0  0  0  0  0  0999 V2000
   -1.7840    0.0530   -0.1594 C   0  0  0  0  0  0  0  0  0  0  0  0
   -3.1552   -0.0671   -0.2123 N   0  0  0  0  0  0  0  0  0  0  0  0
   -4.2748   -0.1192   -0.2475 N   0  0  0  0  0  0  0  0  0  0  0  0
   -1.3201    1.3621    0.1153 C   0  0  0  0  0  0  0  0  0  0  0  0
    0.0849    1.3837    0.1491 C   0  0  0  0  0  0  0  0  0  0  0  0
    0.8954    0.2564   -0.0611 C   0  0  0  0  0  0  0  0  0  0  0  0
    2.2322    0.4582    0.0097 O   0  0  0  0  0  0  0  0  0  0  0  0
    3.1241   -0.6330   -0.1869 C   0  0  0  0  0  0  0  0  0  0  0  0
    0.3270   -1.0213   -0.3320 C   0  0  0  0  0  0  0  0  0  0  0  0
   -1.0419   -1.1372   -0.3846 C   0  0  0  0  0  0  0  0  0  0  0  0
   -3.3959    3.7602    0.5606 H   0  0  0  0  0  0  0  0  0  0  0  0
    0.6180    2.3134    0.3493 H   0  0  0  0  0  0  0  0  0  0  0  0
    4.1276   -0.2198   -0.0782 H   0  0  0  0  0  0  0  0  0  0  0  0
    3.0198   -1.0641   -1.1900 H   0  0  0  0  0  0  0  0  0  0  0  0
    2.9738   -1.4175    0.5645 H   0  0  0  0  0  0  0  0  0  0  0  0
    0.9494   -1.8919   -0.4952 H   0  0  0  0  0  0  0  0  0  0  0  0
   -1.5216   -2.0912   -0.5892 H   0  0  0  0  0  0  0  0  0  0  0  0
   -4.1331    4.3924    0.6489 O   0  0  0  0  0  0  0  0  0  0  0  0
   -5.2766    3.7308    0.4848 C   0  0  0  0  0  0  0  0  0  0  0  0
   -5.4116    2.5528    0.2662 O   0  0  0  0  0  0  0  0  0  0  0  0
   -6.4698    4.7019    0.6216 C   0  0  0  0  0  0  0  0  0  0  0  0
   -6.3637    5.7072   -0.2653 F   0  0  0  0  0  0  0  0  0  0  0  0
   -7.6192    4.0583    0.4039 F   0  0  0  0  0  0  0  0  0  0  0  0
   -6.4995    5.2307    1.8582 F   0  0  0  0  0  0  0  0  0  0  0  0
  1  4  2  0  0  0  0
  2  1  1  0  0  0  0
  3  2  1  0  0  0  0
  4  5  1  0  0  0  0
  5 12  1  0  0  0  0
  6  7  1  0  0  0  0
  6  5  2  0  0  0  0
  8 13  1  0  0  0  0
  8  7  1  0  0  0  0
  8 15  1  0  0  0  0
  9  6  1  0  0  0  0
 10  9  2  0  0  0  0
 10  1  1  0  0  0  0
 11 18  1  0  0  0  0
 14  8  1  0  0  0  0
 16  9  1  0  0  0  0
 17 10  1  0  0  0  0
 19 21  1  0  0  0  0
 19 18  1  0  0  0  0
 20 19  2  0  0  0  0
 21 24  1  0  0  0  0
 22 21  1  0  0  0  0
 23 21  1  0  0  0  0
M  RAD  3   2   2   3   3   4   2
M  END
