Coordinates from ORCA-job 4-MeOPhN2+~CF3COO-_B3LYPG-6-31G_dp-CH-Scan-d09-49-n800
 OpenBabel11261919493D

 24 23  0  0  0  0  0  0  0  0999 V2000
   -1.4781    0.1296   -0.2692 C   0  0  0  0  0  0  0  0  0  0  0  0
   -2.8547    0.1584   -0.3465 N   0  0  0  0  0  0  0  0  0  0  0  0
   -3.9727    0.2409   -0.4007 N   0  0  0  0  0  0  0  0  0  0  0  0
   -0.8956    1.4020   -0.0590 C   0  0  0  0  0  0  0  0  0  0  0  0
    0.5059    1.2781    0.0067 C   0  0  0  0  0  0  0  0  0  0  0  0
    1.1989    0.0645   -0.1191 C   0  0  0  0  0  0  0  0  0  0  0  0
    2.5499    0.1319   -0.0287 O   0  0  0  0  0  0  0  0  0  0  0  0
    3.3259   -1.0549   -0.1406 C   0  0  0  0  0  0  0  0  0  0  0  0
    0.5079   -1.1644   -0.3302 C   0  0  0  0  0  0  0  0  0  0  0  0
   -0.8644   -1.1442   -0.4091 C   0  0  0  0  0  0  0  0  0  0  0  0
   -3.8703    4.6518    0.5268 H   0  0  0  0  0  0  0  0  0  0  0  0
    1.1303    2.1584    0.1658 H   0  0  0  0  0  0  0  0  0  0  0  0
    4.3655   -0.7422   -0.0326 H   0  0  0  0  0  0  0  0  0  0  0  0
    3.1946   -1.5336   -1.1191 H   0  0  0  0  0  0  0  0  0  0  0  0
    3.0817   -1.7734    0.6512 H   0  0  0  0  0  0  0  0  0  0  0  0
    1.0424   -2.1009   -0.4288 H   0  0  0  0  0  0  0  0  0  0  0  0
   -1.4368   -2.0547   -0.5703 H   0  0  0  0  0  0  0  0  0  0  0  0
   -4.7374    5.0684    0.6714 O   0  0  0  0  0  0  0  0  0  0  0  0
   -5.6725    4.1223    0.5366 C   0  0  0  0  0  0  0  0  0  0  0  0
   -5.4871    2.9608    0.2818 O   0  0  0  0  0  0  0  0  0  0  0  0
   -7.0727    4.7338    0.7595 C   0  0  0  0  0  0  0  0  0  0  0  0
   -7.2951    5.7253   -0.1205 F   0  0  0  0  0  0  0  0  0  0  0  0
   -8.0140    3.8009    0.6033 F   0  0  0  0  0  0  0  0  0  0  0  0
   -7.1662    5.2400    2.0016 F   0  0  0  0  0  0  0  0  0  0  0  0
  1  4  2  0  0  0  0
  2  1  1  0  0  0  0
  3  2  1  0  0  0  0
  4  5  1  0  0  0  0
  5 12  1  0  0  0  0
  6  7  1  0  0  0  0
  6  5  2  0  0  0  0
  8 13  1  0  0  0  0
  8  7  1  0  0  0  0
  8 15  1  0  0  0  0
  9  6  1  0  0  0  0
 10  9  2  0  0  0  0
 10  1  1  0  0  0  0
 11 18  1  0  0  0  0
 14  8  1  0  0  0  0
 16  9  1  0  0  0  0
 17 10  1  0  0  0  0
 19 18  1  0  0  0  0
 19 21  1  0  0  0  0
 20 19  2  0  0  0  0
 21 24  1  0  0  0  0
 22 21  1  0  0  0  0
 23 21  1  0  0  0  0
M  RAD  3   2   2   3   3   4   2
M  END
