Coordinates from ORCA-job 4-MeOPhN2+~CF3COO-_B3LYPG-6-31G_dp-CH-Scan-d09-49-n800
 OpenBabel11261919493D

 24 23  0  0  0  0  0  0  0  0999 V2000
   -2.1658    0.0463   -0.2211 C   0  0  0  0  0  0  0  0  0  0  0  0
   -3.5103   -0.2221   -0.3241 N   0  0  0  0  0  0  0  0  0  0  0  0
   -4.6169   -0.3727   -0.3925 N   0  0  0  0  0  0  0  0  0  0  0  0
   -1.8158    1.3887    0.0600 C   0  0  0  0  0  0  0  0  0  0  0  0
   -0.4338    1.5651    0.1499 C   0  0  0  0  0  0  0  0  0  0  0  0
    0.4944    0.5212   -0.0205 C   0  0  0  0  0  0  0  0  0  0  0  0
    1.7931    0.8593    0.1011 O   0  0  0  0  0  0  0  0  0  0  0  0
    2.8027   -0.1365   -0.0472 C   0  0  0  0  0  0  0  0  0  0  0  0
    0.0610   -0.8016   -0.3029 C   0  0  0  0  0  0  0  0  0  0  0  0
   -1.2889   -1.0503   -0.4064 C   0  0  0  0  0  0  0  0  0  0  0  0
   -2.8589    2.6249    0.2693 H   0  0  0  0  0  0  0  0  0  0  0  0
   -0.0191    2.5479    0.3642 H   0  0  0  0  0  0  0  0  0  0  0  0
    3.7507    0.3804    0.1016 H   0  0  0  0  0  0  0  0  0  0  0  0
    2.7849   -0.5780   -1.0502 H   0  0  0  0  0  0  0  0  0  0  0  0
    2.6985   -0.9267    0.7054 H   0  0  0  0  0  0  0  0  0  0  0  0
    0.7681   -1.6099   -0.4373 H   0  0  0  0  0  0  0  0  0  0  0  0
   -1.6627   -2.0472   -0.6217 H   0  0  0  0  0  0  0  0  0  0  0  0
   -3.4790    3.5138    0.4251 O   0  0  0  0  0  0  0  0  0  0  0  0
   -4.7471    3.2327    0.4178 C   0  0  0  0  0  0  0  0  0  0  0  0
   -5.2902    2.1513    0.2544 O   0  0  0  0  0  0  0  0  0  0  0  0
   -5.6009    4.5038    0.6487 C   0  0  0  0  0  0  0  0  0  0  0  0
   -5.3972    5.3978   -0.3413 F   0  0  0  0  0  0  0  0  0  0  0  0
   -6.9084    4.2133    0.6836 F   0  0  0  0  0  0  0  0  0  0  0  0
   -5.2728    5.0971    1.8144 F   0  0  0  0  0  0  0  0  0  0  0  0
  1  4  2  0  0  0  0
  2  1  1  0  0  0  0
  3  2  1  0  0  0  0
  4  5  1  0  0  0  0
  5 12  1  0  0  0  0
  6  7  1  0  0  0  0
  6  5  2  0  0  0  0
  8  7  1  0  0  0  0
  8 13  1  0  0  0  0
  8 15  1  0  0  0  0
  9  6  1  0  0  0  0
 10  9  2  0  0  0  0
 10  1  1  0  0  0  0
 11 18  1  0  0  0  0
 14  8  1  0  0  0  0
 16  9  1  0  0  0  0
 17 10  1  0  0  0  0
 19 18  1  0  0  0  0
 19 21  1  0  0  0  0
 20 19  2  0  0  0  0
 21 23  1  0  0  0  0
 21 24  1  0  0  0  0
 22 21  1  0  0  0  0
M  RAD  3   2   2   3   3   4   2
M  END
