Coordinates from ORCA-job 4-MeOPhN2+~CF3COO-_B3LYPG-6-31G_dp-CH-Scan-d09-49-n800
 OpenBabel11261919493D

 24 23  0  0  0  0  0  0  0  0999 V2000
   -1.7507    0.0549   -0.1554 C   0  0  0  0  0  0  0  0  0  0  0  0
   -3.1234   -0.0511   -0.2040 N   0  0  0  0  0  0  0  0  0  0  0  0
   -4.2439   -0.0899   -0.2345 N   0  0  0  0  0  0  0  0  0  0  0  0
   -1.2758    1.3602    0.1190 C   0  0  0  0  0  0  0  0  0  0  0  0
    0.1301    1.3679    0.1486 C   0  0  0  0  0  0  0  0  0  0  0  0
    0.9296    0.2336   -0.0646 C   0  0  0  0  0  0  0  0  0  0  0  0
    2.2687    0.4230    0.0025 O   0  0  0  0  0  0  0  0  0  0  0  0
    3.1498   -0.6760   -0.1979 C   0  0  0  0  0  0  0  0  0  0  0  0
    0.3491   -1.0390   -0.3348 C   0  0  0  0  0  0  0  0  0  0  0  0
   -1.0210   -1.1424   -0.3837 C   0  0  0  0  0  0  0  0  0  0  0  0
   -3.4441    3.8543    0.5884 H   0  0  0  0  0  0  0  0  0  0  0  0
    0.6726    2.2925    0.3478 H   0  0  0  0  0  0  0  0  0  0  0  0
    4.1575   -0.2722   -0.0925 H   0  0  0  0  0  0  0  0  0  0  0  0
    3.0381   -1.1058   -1.2008 H   0  0  0  0  0  0  0  0  0  0  0  0
    2.9951   -1.4596    0.5536 H   0  0  0  0  0  0  0  0  0  0  0  0
    0.9633   -1.9149   -0.5004 H   0  0  0  0  0  0  0  0  0  0  0  0
   -1.5100   -2.0919   -0.5876 H   0  0  0  0  0  0  0  0  0  0  0  0
   -4.1970    4.4672    0.6697 O   0  0  0  0  0  0  0  0  0  0  0  0
   -5.3215    3.7752    0.4913 C   0  0  0  0  0  0  0  0  0  0  0  0
   -5.4205    2.5950    0.2682 O   0  0  0  0  0  0  0  0  0  0  0  0
   -6.5412    4.7141    0.6184 C   0  0  0  0  0  0  0  0  0  0  0  0
   -6.4516    5.7250   -0.2637 F   0  0  0  0  0  0  0  0  0  0  0  0
   -7.6707    4.0415    0.3864 F   0  0  0  0  0  0  0  0  0  0  0  0
   -6.5972    5.2371    1.8565 F   0  0  0  0  0  0  0  0  0  0  0  0
  1  4  2  0  0  0  0
  2  1  1  0  0  0  0
  3  2  1  0  0  0  0
  4  5  1  0  0  0  0
  5 12  1  0  0  0  0
  6  7  1  0  0  0  0
  6  5  2  0  0  0  0
  8 13  1  0  0  0  0
  8  7  1  0  0  0  0
  8 15  1  0  0  0  0
  9  6  1  0  0  0  0
 10  9  2  0  0  0  0
 10  1  1  0  0  0  0
 11 18  1  0  0  0  0
 14  8  1  0  0  0  0
 16  9  1  0  0  0  0
 17 10  1  0  0  0  0
 19 21  1  0  0  0  0
 19 18  1  0  0  0  0
 20 19  2  0  0  0  0
 21 24  1  0  0  0  0
 22 21  1  0  0  0  0
 23 21  1  0  0  0  0
M  RAD  3   2   2   3   3   4   2
M  END
