Coordinates from ORCA-job 4-MeOPhN2+~CF3COO-_B3LYPG-6-31G_dp-CH-Scan-d09-49-n800
 OpenBabel11261919493D

 24 23  0  0  0  0  0  0  0  0999 V2000
   -2.3015    0.4815    0.3447 C   0  0  0  0  0  0  0  0  0  0  0  0
   -3.7009    0.3046    0.4154 N   0  0  0  0  0  0  0  0  0  0  0  0
   -4.5554   -0.4269    0.3078 N   0  0  0  0  0  0  0  0  0  0  0  0
   -1.6738    1.6278    0.8468 C   0  0  0  0  0  0  0  0  0  0  0  0
   -0.2951    1.7035    0.7670 C   0  0  0  0  0  0  0  0  0  0  0  0
    0.4551    0.6627    0.1868 C   0  0  0  0  0  0  0  0  0  0  0  0
    1.7885    0.8522    0.1570 O   0  0  0  0  0  0  0  0  0  0  0  0
    2.6210   -0.1473   -0.4291 C   0  0  0  0  0  0  0  0  0  0  0  0
   -0.1970   -0.4799   -0.3137 C   0  0  0  0  0  0  0  0  0  0  0  0
   -1.5786   -0.5726   -0.2301 C   0  0  0  0  0  0  0  0  0  0  0  0
   -2.2215    2.3496    1.2460 H   0  0  0  0  0  0  0  0  0  0  0  0
    0.2334    2.5718    1.1443 H   0  0  0  0  0  0  0  0  0  0  0  0
    3.6394    0.2328   -0.3484 H   0  0  0  0  0  0  0  0  0  0  0  0
    2.3724   -0.3023   -1.4852 H   0  0  0  0  0  0  0  0  0  0  0  0
    2.5436   -1.0971    0.1124 H   0  0  0  0  0  0  0  0  0  0  0  0
    0.3596   -1.2910   -0.7656 H   0  0  0  0  0  0  0  0  0  0  0  0
   -2.0981   -1.4441   -0.6125 H   0  0  0  0  0  0  0  0  0  0  0  0
   -4.3652    2.2025    1.0453 O   0  0  0  0  0  0  0  0  0  0  0  0
   -4.6152    2.7826   -0.0733 C   0  0  0  0  0  0  0  0  0  0  0  0
   -4.3290    2.4161   -1.2097 O   0  0  0  0  0  0  0  0  0  0  0  0
   -5.3395    4.1448    0.1269 C   0  0  0  0  0  0  0  0  0  0  0  0
   -5.7769    4.6551   -1.0333 F   0  0  0  0  0  0  0  0  0  0  0  0
   -6.3965    4.0315    0.9552 F   0  0  0  0  0  0  0  0  0  0  0  0
   -4.4834    5.0405    0.6754 F   0  0  0  0  0  0  0  0  0  0  0  0
  1  2  1  0  0  0  0
  1  4  2  0  0  0  0
  3  2  2  0  0  0  0
  4 11  1  0  0  0  0
  5  4  1  0  0  0  0
  5 12  1  0  0  0  0
  6  5  2  0  0  0  0
  7  6  1  0  0  0  0
  8 13  1  0  0  0  0
  8 15  1  0  0  0  0
  8  7  1  0  0  0  0
  9 10  2  0  0  0  0
  9  6  1  0  0  0  0
 10  1  1  0  0  0  0
 14  8  1  0  0  0  0
 16  9  1  0  0  0  0
 17 10  1  0  0  0  0
 19 21  1  0  0  0  0
 19 18  1  0  0  0  0
 20 19  2  0  0  0  0
 21 24  1  0  0  0  0
 21 23  1  0  0  0  0
 22 21  1  0  0  0  0
M  RAD  2   3   2  18   2
M  END
