Coordinates from ORCA-job 4-MeOPhN2+~CF3COO-_B3LYPG-6-31G_dp-CH-Scan-d09-49-n800
 OpenBabel11261919493D

 24 23  0  0  0  0  0  0  0  0999 V2000
   -1.6021    0.0809   -0.1367 C   0  0  0  0  0  0  0  0  0  0  0  0
   -2.9799    0.0441   -0.1669 N   0  0  0  0  0  0  0  0  0  0  0  0
   -4.1016    0.0685   -0.1821 N   0  0  0  0  0  0  0  0  0  0  0  0
   -1.0692    1.3648    0.1308 C   0  0  0  0  0  0  0  0  0  0  0  0
    0.3375    1.3042    0.1418 C   0  0  0  0  0  0  0  0  0  0  0  0
    1.0805    0.1346   -0.0813 C   0  0  0  0  0  0  0  0  0  0  0  0
    2.4290    0.2612   -0.0330 O   0  0  0  0  0  0  0  0  0  0  0  0
    3.2542   -0.8772   -0.2480 C   0  0  0  0  0  0  0  0  0  0  0  0
    0.4388   -1.1109   -0.3425 C   0  0  0  0  0  0  0  0  0  0  0  0
   -0.9350   -1.1510   -0.3734 C   0  0  0  0  0  0  0  0  0  0  0  0
   -3.6674    4.3002    0.7178 H   0  0  0  0  0  0  0  0  0  0  0  0
    0.9264    2.2023    0.3331 H   0  0  0  0  0  0  0  0  0  0  0  0
    4.2815   -0.5210   -0.1605 H   0  0  0  0  0  0  0  0  0  0  0  0
    3.1055   -1.3017   -1.2485 H   0  0  0  0  0  0  0  0  0  0  0  0
    3.0767   -1.6534    0.5063 H   0  0  0  0  0  0  0  0  0  0  0  0
    1.0102   -2.0141   -0.5151 H   0  0  0  0  0  0  0  0  0  0  0  0
   -1.4707   -2.0769   -0.5696 H   0  0  0  0  0  0  0  0  0  0  0  0
   -4.4941    4.8111    0.7648 O   0  0  0  0  0  0  0  0  0  0  0  0
   -5.5082    3.9758    0.5240 C   0  0  0  0  0  0  0  0  0  0  0  0
   -5.4306    2.7978    0.2881 O   0  0  0  0  0  0  0  0  0  0  0  0
   -6.8481    4.7397    0.6001 C   0  0  0  0  0  0  0  0  0  0  0  0
   -6.8494    5.7772   -0.2545 F   0  0  0  0  0  0  0  0  0  0  0  0
   -7.8607    3.9273    0.2917 F   0  0  0  0  0  0  0  0  0  0  0  0
   -7.0381    5.2152    1.8439 F   0  0  0  0  0  0  0  0  0  0  0  0
  1  4  2  0  0  0  0
  2  1  1  0  0  0  0
  3  2  1  0  0  0  0
  4  5  1  0  0  0  0
  5 12  1  0  0  0  0
  6  7  1  0  0  0  0
  6  5  2  0  0  0  0
  8 13  1  0  0  0  0
  8  7  1  0  0  0  0
  8 15  1  0  0  0  0
  9  6  1  0  0  0  0
 10  9  2  0  0  0  0
 10  1  1  0  0  0  0
 11 18  1  0  0  0  0
 14  8  1  0  0  0  0
 16  9  1  0  0  0  0
 17 10  1  0  0  0  0
 19 21  1  0  0  0  0
 19 18  1  0  0  0  0
 20 19  2  0  0  0  0
 21 24  1  0  0  0  0
 22 21  1  0  0  0  0
 23 21  1  0  0  0  0
M  RAD  3   2   2   3   3   4   2
M  END
