Coordinates from ORCA-job 4-MeOPhN2+~CF3COO-_B3LYPG-6-31G_dp-CH-Scan-d09-49-n800
 OpenBabel11261919493D

 24 23  0  0  0  0  0  0  0  0999 V2000
   -1.8568    0.0468   -0.1775 C   0  0  0  0  0  0  0  0  0  0  0  0
   -3.2235   -0.1041   -0.2430 N   0  0  0  0  0  0  0  0  0  0  0  0
   -4.3410   -0.1822   -0.2880 N   0  0  0  0  0  0  0  0  0  0  0  0
   -1.4187    1.3645    0.0996 C   0  0  0  0  0  0  0  0  0  0  0  0
   -0.0162    1.4175    0.1471 C   0  0  0  0  0  0  0  0  0  0  0  0
    0.8196    0.3066   -0.0537 C   0  0  0  0  0  0  0  0  0  0  0  0
    2.1501    0.5367    0.0302 O   0  0  0  0  0  0  0  0  0  0  0  0
    3.0673   -0.5361   -0.1544 C   0  0  0  0  0  0  0  0  0  0  0  0
    0.2799   -0.9822   -0.3283 C   0  0  0  0  0  0  0  0  0  0  0  0
   -1.0860   -1.1263   -0.3937 C   0  0  0  0  0  0  0  0  0  0  0  0
   -3.2998    3.5402    0.4900 H   0  0  0  0  0  0  0  0  0  0  0  0
    0.4943    2.3585    0.3512 H   0  0  0  0  0  0  0  0  0  0  0  0
    4.0603   -0.1016   -0.0340 H   0  0  0  0  0  0  0  0  0  0  0  0
    2.9838   -0.9699   -1.1581 H   0  0  0  0  0  0  0  0  0  0  0  0
    2.9241   -1.3224    0.5964 H   0  0  0  0  0  0  0  0  0  0  0  0
    0.9211   -1.8402   -0.4846 H   0  0  0  0  0  0  0  0  0  0  0  0
   -1.5435   -2.0903   -0.6017 H   0  0  0  0  0  0  0  0  0  0  0  0
   -3.9978    4.2174    0.5944 O   0  0  0  0  0  0  0  0  0  0  0  0
   -5.1835    3.6306    0.4748 C   0  0  0  0  0  0  0  0  0  0  0  0
   -5.4055    2.4615    0.2740 O   0  0  0  0  0  0  0  0  0  0  0  0
   -6.3077    4.6779    0.6349 C   0  0  0  0  0  0  0  0  0  0  0  0
   -6.1786    5.6512   -0.2849 F   0  0  0  0  0  0  0  0  0  0  0  0
   -7.5040    4.1035    0.4839 F   0  0  0  0  0  0  0  0  0  0  0  0
   -6.2522    5.2410    1.8555 F   0  0  0  0  0  0  0  0  0  0  0  0
  1  4  2  0  0  0  0
  2  1  1  0  0  0  0
  3  2  1  0  0  0  0
  4  5  1  0  0  0  0
  5 12  1  0  0  0  0
  6  7  1  0  0  0  0
  6  5  2  0  0  0  0
  8 13  1  0  0  0  0
  8  7  1  0  0  0  0
  8 15  1  0  0  0  0
  9  6  1  0  0  0  0
 10  9  2  0  0  0  0
 10  1  1  0  0  0  0
 11 18  1  0  0  0  0
 14  8  1  0  0  0  0
 16  9  1  0  0  0  0
 17 10  1  0  0  0  0
 19 18  1  0  0  0  0
 19 21  1  0  0  0  0
 20 19  2  0  0  0  0
 21 24  1  0  0  0  0
 22 21  1  0  0  0  0
 23 21  1  0  0  0  0
M  RAD  3   2   2   3   3   4   2
M  END
