Coordinates from ORCA-job 4-MeOPhN2+~CF3COO-_B3LYPG-6-31G_dp-CH-Scan-d09-49-n800
 OpenBabel11261919493D

 24 23  0  0  0  0  0  0  0  0999 V2000
   -2.1785    0.0504   -0.2213 C   0  0  0  0  0  0  0  0  0  0  0  0
   -3.5242   -0.2141   -0.3240 N   0  0  0  0  0  0  0  0  0  0  0  0
   -4.6342   -0.3390   -0.3868 N   0  0  0  0  0  0  0  0  0  0  0  0
   -1.8248    1.3910    0.0587 C   0  0  0  0  0  0  0  0  0  0  0  0
   -0.4459    1.5746    0.1505 C   0  0  0  0  0  0  0  0  0  0  0  0
    0.4837    0.5310   -0.0186 C   0  0  0  0  0  0  0  0  0  0  0  0
    1.7808    0.8714    0.1034 O   0  0  0  0  0  0  0  0  0  0  0  0
    2.7928   -0.1227   -0.0441 C   0  0  0  0  0  0  0  0  0  0  0  0
    0.0512   -0.7917   -0.3002 C   0  0  0  0  0  0  0  0  0  0  0  0
   -1.2989   -1.0426   -0.4045 C   0  0  0  0  0  0  0  0  0  0  0  0
   -2.8167    2.5538    0.2537 H   0  0  0  0  0  0  0  0  0  0  0  0
   -0.0369    2.5595    0.3643 H   0  0  0  0  0  0  0  0  0  0  0  0
    3.7395    0.3964    0.1047 H   0  0  0  0  0  0  0  0  0  0  0  0
    2.7757   -0.5644   -1.0469 H   0  0  0  0  0  0  0  0  0  0  0  0
    2.6895   -0.9124    0.7091 H   0  0  0  0  0  0  0  0  0  0  0  0
    0.7591   -1.5994   -0.4334 H   0  0  0  0  0  0  0  0  0  0  0  0
   -1.6708   -2.0401   -0.6192 H   0  0  0  0  0  0  0  0  0  0  0  0
   -3.4640    3.4792    0.4148 O   0  0  0  0  0  0  0  0  0  0  0  0
   -4.7294    3.2131    0.4121 C   0  0  0  0  0  0  0  0  0  0  0  0
   -5.2915    2.1375    0.2490 O   0  0  0  0  0  0  0  0  0  0  0  0
   -5.5755    4.4898    0.6481 C   0  0  0  0  0  0  0  0  0  0  0  0
   -5.3691    5.3857   -0.3405 F   0  0  0  0  0  0  0  0  0  0  0  0
   -6.8865    4.2120    0.6871 F   0  0  0  0  0  0  0  0  0  0  0  0
   -5.2401    5.0798    1.8142 F   0  0  0  0  0  0  0  0  0  0  0  0
  1  4  2  0  0  0  0
  2  1  1  0  0  0  0
  3  2  1  0  0  0  0
  4  5  1  0  0  0  0
  5 12  1  0  0  0  0
  6  7  1  0  0  0  0
  6  5  2  0  0  0  0
  8  7  1  0  0  0  0
  8 13  1  0  0  0  0
  8 15  1  0  0  0  0
  9  6  1  0  0  0  0
 10  9  2  0  0  0  0
 10  1  1  0  0  0  0
 11 18  1  0  0  0  0
 14  8  1  0  0  0  0
 16  9  1  0  0  0  0
 17 10  1  0  0  0  0
 19 18  1  0  0  0  0
 19 21  1  0  0  0  0
 20 19  2  0  0  0  0
 21 23  1  0  0  0  0
 21 24  1  0  0  0  0
 22 21  1  0  0  0  0
M  RAD  3   2   2   3   3   4   2
M  END
