Coordinates from ORCA-job 4-MeOPhN2+~CF3COO-_B3LYPG-6-31G_dp-CH-Scan-d09-49-n800
 OpenBabel11261919493D

 24 23  0  0  0  0  0  0  0  0999 V2000
   -1.6538    0.0660   -0.1423 C   0  0  0  0  0  0  0  0  0  0  0  0
   -3.0302    0.0028   -0.1777 N   0  0  0  0  0  0  0  0  0  0  0  0
   -4.1519    0.0053   -0.2036 N   0  0  0  0  0  0  0  0  0  0  0  0
   -1.1438    1.3587    0.1277 C   0  0  0  0  0  0  0  0  0  0  0  0
    0.2631    1.3246    0.1447 C   0  0  0  0  0  0  0  0  0  0  0  0
    1.0283    0.1686   -0.0756 C   0  0  0  0  0  0  0  0  0  0  0  0
    2.3736    0.3197   -0.0210 O   0  0  0  0  0  0  0  0  0  0  0  0
    3.2206   -0.8036   -0.2309 C   0  0  0  0  0  0  0  0  0  0  0  0
    0.4102   -1.0879   -0.3404 C   0  0  0  0  0  0  0  0  0  0  0  0
   -0.9625   -1.1529   -0.3771 C   0  0  0  0  0  0  0  0  0  0  0  0
   -3.5887    4.1340    0.6725 H   0  0  0  0  0  0  0  0  0  0  0  0
    0.8344    2.2332    0.3391 H   0  0  0  0  0  0  0  0  0  0  0  0
    4.2407   -0.4288   -0.1370 H   0  0  0  0  0  0  0  0  0  0  0  0
    3.0858   -1.2303   -1.2324 H   0  0  0  0  0  0  0  0  0  0  0  0
    3.0525   -1.5829    0.5223 H   0  0  0  0  0  0  0  0  0  0  0  0
    0.9985   -1.9805   -0.5111 H   0  0  0  0  0  0  0  0  0  0  0  0
   -1.4803   -2.0882   -0.5762 H   0  0  0  0  0  0  0  0  0  0  0  0
   -4.3878    4.6859    0.7330 O   0  0  0  0  0  0  0  0  0  0  0  0
   -5.4476    3.9052    0.5122 C   0  0  0  0  0  0  0  0  0  0  0  0
   -5.4384    2.7239    0.2781 O   0  0  0  0  0  0  0  0  0  0  0  0
   -6.7434    4.7400    0.6073 C   0  0  0  0  0  0  0  0  0  0  0  0
   -6.7061    5.7688   -0.2572 F   0  0  0  0  0  0  0  0  0  0  0  0
   -7.8044    3.9809    0.3262 F   0  0  0  0  0  0  0  0  0  0  0  0
   -6.8835    5.2360    1.8498 F   0  0  0  0  0  0  0  0  0  0  0  0
  1  4  2  0  0  0  0
  2  1  1  0  0  0  0
  3  2  1  0  0  0  0
  4  5  1  0  0  0  0
  5 12  1  0  0  0  0
  6  7  1  0  0  0  0
  6  5  2  0  0  0  0
  8 13  1  0  0  0  0
  8  7  1  0  0  0  0
  8 15  1  0  0  0  0
  9  6  1  0  0  0  0
 10  9  2  0  0  0  0
 10  1  1  0  0  0  0
 11 18  1  0  0  0  0
 14  8  1  0  0  0  0
 16  9  1  0  0  0  0
 17 10  1  0  0  0  0
 19 21  1  0  0  0  0
 19 18  1  0  0  0  0
 20 19  2  0  0  0  0
 21 24  1  0  0  0  0
 22 21  1  0  0  0  0
 23 21  1  0  0  0  0
M  RAD  3   2   2   3   3   4   2
M  END
