Coordinates from ORCA-job 4-MeOPhN2+~CF3COO-_B3LYPG-6-31G_dp-CH-Scan-d09-49-n800
 OpenBabel11261919493D

 24 23  0  0  0  0  0  0  0  0999 V2000
   -1.4168    0.1555   -0.2588 C   0  0  0  0  0  0  0  0  0  0  0  0
   -2.7929    0.2173   -0.3278 N   0  0  0  0  0  0  0  0  0  0  0  0
   -3.9089    0.3280   -0.3757 N   0  0  0  0  0  0  0  0  0  0  0  0
   -0.8039    1.4148   -0.0575 C   0  0  0  0  0  0  0  0  0  0  0  0
    0.5948    1.2585   -0.0003 C   0  0  0  0  0  0  0  0  0  0  0  0
    1.2585    0.0288   -0.1263 C   0  0  0  0  0  0  0  0  0  0  0  0
    2.6114    0.0652   -0.0461 O   0  0  0  0  0  0  0  0  0  0  0  0
    3.3591   -1.1391   -0.1621 C   0  0  0  0  0  0  0  0  0  0  0  0
    0.5377   -1.1847   -0.3274 C   0  0  0  0  0  0  0  0  0  0  0  0
   -0.8343   -1.1330   -0.3972 C   0  0  0  0  0  0  0  0  0  0  0  0
   -3.9758    4.8065    0.5608 H   0  0  0  0  0  0  0  0  0  0  0  0
    1.2406    2.1247    0.1513 H   0  0  0  0  0  0  0  0  0  0  0  0
    4.4065   -0.8500   -0.0643 H   0  0  0  0  0  0  0  0  0  0  0  0
    3.2081   -1.6171   -1.1382 H   0  0  0  0  0  0  0  0  0  0  0  0
    3.1061   -1.8503    0.6337 H   0  0  0  0  0  0  0  0  0  0  0  0
    1.0497   -2.1337   -0.4253 H   0  0  0  0  0  0  0  0  0  0  0  0
   -1.4288   -2.0307   -0.5501 H   0  0  0  0  0  0  0  0  0  0  0  0
   -4.8636    5.1809    0.6947 O   0  0  0  0  0  0  0  0  0  0  0  0
   -5.7497    4.1897    0.5484 C   0  0  0  0  0  0  0  0  0  0  0  0
   -5.5033    3.0390    0.2969 O   0  0  0  0  0  0  0  0  0  0  0  0
   -7.1810    4.7314    0.7530 C   0  0  0  0  0  0  0  0  0  0  0  0
   -7.4412    5.7092   -0.1318 F   0  0  0  0  0  0  0  0  0  0  0  0
   -8.0726    3.7528    0.5876 F   0  0  0  0  0  0  0  0  0  0  0  0
   -7.3143    5.2345    1.9928 F   0  0  0  0  0  0  0  0  0  0  0  0
  1  4  2  0  0  0  0
  2  1  1  0  0  0  0
  3  2  1  0  0  0  0
  4  5  1  0  0  0  0
  5 12  1  0  0  0  0
  6  7  1  0  0  0  0
  6  5  2  0  0  0  0
  8 13  1  0  0  0  0
  8  7  1  0  0  0  0
  8 15  1  0  0  0  0
  9  6  1  0  0  0  0
 10  9  2  0  0  0  0
 10  1  1  0  0  0  0
 11 18  1  0  0  0  0
 14  8  1  0  0  0  0
 16  9  1  0  0  0  0
 17 10  1  0  0  0  0
 19 18  1  0  0  0  0
 19 21  1  0  0  0  0
 20 19  2  0  0  0  0
 21 24  1  0  0  0  0
 22 21  1  0  0  0  0
 23 21  1  0  0  0  0
M  RAD  3   2   2   3   3   4   2
M  END
