Coordinates from ORCA-job 4-MeOPhN2+~CF3COO-_B3LYPG-6-31G_dp-CH-Scan-d09-49-n800
 OpenBabel11261919493D

 24 23  0  0  0  0  0  0  0  0999 V2000
   -1.7852    0.0527   -0.1598 C   0  0  0  0  0  0  0  0  0  0  0  0
   -3.1562   -0.0681   -0.2130 N   0  0  0  0  0  0  0  0  0  0  0  0
   -4.2759   -0.1205   -0.2476 N   0  0  0  0  0  0  0  0  0  0  0  0
   -1.3218    1.3620    0.1150 C   0  0  0  0  0  0  0  0  0  0  0  0
    0.0832    1.3841    0.1491 C   0  0  0  0  0  0  0  0  0  0  0  0
    0.8942    0.2571   -0.0610 C   0  0  0  0  0  0  0  0  0  0  0  0
    2.2309    0.4595    0.0101 O   0  0  0  0  0  0  0  0  0  0  0  0
    3.1232   -0.6313   -0.1864 C   0  0  0  0  0  0  0  0  0  0  0  0
    0.3264   -1.0208   -0.3320 C   0  0  0  0  0  0  0  0  0  0  0  0
   -1.0426   -1.1372   -0.3848 C   0  0  0  0  0  0  0  0  0  0  0  0
   -3.3942    3.7566    0.5592 H   0  0  0  0  0  0  0  0  0  0  0  0
    0.6159    2.3141    0.3494 H   0  0  0  0  0  0  0  0  0  0  0  0
    4.1265   -0.2178   -0.0774 H   0  0  0  0  0  0  0  0  0  0  0  0
    3.0193   -1.0625   -1.1894 H   0  0  0  0  0  0  0  0  0  0  0  0
    2.9731   -1.4159    0.5651 H   0  0  0  0  0  0  0  0  0  0  0  0
    0.9491   -1.8911   -0.4951 H   0  0  0  0  0  0  0  0  0  0  0  0
   -1.5218   -2.0914   -0.5896 H   0  0  0  0  0  0  0  0  0  0  0  0
   -4.1308    4.3896    0.6477 O   0  0  0  0  0  0  0  0  0  0  0  0
   -5.2752    3.7293    0.4845 C   0  0  0  0  0  0  0  0  0  0  0  0
   -5.4115    2.5516    0.2663 O   0  0  0  0  0  0  0  0  0  0  0  0
   -6.4673    4.7018    0.6219 C   0  0  0  0  0  0  0  0  0  0  0  0
   -6.3607    5.7067   -0.2653 F   0  0  0  0  0  0  0  0  0  0  0  0
   -7.6176    4.0593    0.4051 F   0  0  0  0  0  0  0  0  0  0  0  0
   -6.4957    5.2308    1.8583 F   0  0  0  0  0  0  0  0  0  0  0  0
  1  4  2  0  0  0  0
  2  1  1  0  0  0  0
  3  2  1  0  0  0  0
  4  5  1  0  0  0  0
  5 12  1  0  0  0  0
  6  7  1  0  0  0  0
  6  5  2  0  0  0  0
  8 13  1  0  0  0  0
  8  7  1  0  0  0  0
  8 15  1  0  0  0  0
  9  6  1  0  0  0  0
 10  9  2  0  0  0  0
 10  1  1  0  0  0  0
 11 18  1  0  0  0  0
 14  8  1  0  0  0  0
 16  9  1  0  0  0  0
 17 10  1  0  0  0  0
 19 21  1  0  0  0  0
 19 18  1  0  0  0  0
 20 19  2  0  0  0  0
 21 24  1  0  0  0  0
 22 21  1  0  0  0  0
 23 21  1  0  0  0  0
M  RAD  3   2   2   3   3   4   2
M  END
