Coordinates from ORCA-job 4-MeOPhN2+~CF3COO-_B3LYPG-6-31G_dp-CH-Scan-d09-49-n800
 OpenBabel11261919493D

 24 23  0  0  0  0  0  0  0  0999 V2000
   -2.0448    0.0383   -0.2046 C   0  0  0  0  0  0  0  0  0  0  0  0
   -3.3979   -0.1911   -0.2933 N   0  0  0  0  0  0  0  0  0  0  0  0
   -4.5072   -0.3322   -0.3559 N   0  0  0  0  0  0  0  0  0  0  0  0
   -1.6692    1.3733    0.0839 C   0  0  0  0  0  0  0  0  0  0  0  0
   -0.2761    1.5025    0.1570 C   0  0  0  0  0  0  0  0  0  0  0  0
    0.6201    0.4360   -0.0318 C   0  0  0  0  0  0  0  0  0  0  0  0
    1.9323    0.7354    0.0780 O   0  0  0  0  0  0  0  0  0  0  0  0
    2.9092   -0.2880   -0.0882 C   0  0  0  0  0  0  0  0  0  0  0  0
    0.1503   -0.8752   -0.3202 C   0  0  0  0  0  0  0  0  0  0  0  0
   -1.2058   -1.0872   -0.4101 C   0  0  0  0  0  0  0  0  0  0  0  0
   -3.0562    2.9994    0.3720 H   0  0  0  0  0  0  0  0  0  0  0  0
    0.1773    2.4685    0.3738 H   0  0  0  0  0  0  0  0  0  0  0  0
    3.8744    0.1983    0.0554 H   0  0  0  0  0  0  0  0  0  0  0  0
    2.8699   -0.7215   -1.0944 H   0  0  0  0  0  0  0  0  0  0  0  0
    2.7898   -1.0821    0.6583 H   0  0  0  0  0  0  0  0  0  0  0  0
    0.8354   -1.6999   -0.4686 H   0  0  0  0  0  0  0  0  0  0  0  0
   -1.6093   -2.0721   -0.6293 H   0  0  0  0  0  0  0  0  0  0  0  0
   -3.6704    3.7797    0.5096 O   0  0  0  0  0  0  0  0  0  0  0  0
   -4.9249    3.3855    0.4413 C   0  0  0  0  0  0  0  0  0  0  0  0
   -5.3477    2.2668    0.2449 O   0  0  0  0  0  0  0  0  0  0  0  0
   -5.8759    4.5875    0.6434 C   0  0  0  0  0  0  0  0  0  0  0  0
   -5.7060    5.4902   -0.3423 F   0  0  0  0  0  0  0  0  0  0  0  0
   -7.1518    4.1875    0.6342 F   0  0  0  0  0  0  0  0  0  0  0  0
   -5.6299    5.1992    1.8171 F   0  0  0  0  0  0  0  0  0  0  0  0
  1  4  2  0  0  0  0
  2  1  1  0  0  0  0
  3  2  1  0  0  0  0
  4  5  1  0  0  0  0
  5 12  1  0  0  0  0
  6  7  1  0  0  0  0
  6  5  2  0  0  0  0
  8 13  1  0  0  0  0
  8  7  1  0  0  0  0
  8 15  1  0  0  0  0
  9  6  1  0  0  0  0
 10  9  2  0  0  0  0
 10  1  1  0  0  0  0
 11 18  1  0  0  0  0
 14  8  1  0  0  0  0
 16  9  1  0  0  0  0
 17 10  1  0  0  0  0
 19 18  1  0  0  0  0
 19 21  1  0  0  0  0
 20 19  2  0  0  0  0
 21 24  1  0  0  0  0
 22 21  1  0  0  0  0
 23 21  1  0  0  0  0
M  RAD  3   2   2   3   3   4   2
M  END
