Coordinates from ORCA-job 4-MeOPhN2+~CF3COO-_B3LYPG-6-31G_dp-CH-Scan-d09-49-n800
 OpenBabel11261919493D

 24 23  0  0  0  0  0  0  0  0999 V2000
   -2.1594    0.0450   -0.2206 C   0  0  0  0  0  0  0  0  0  0  0  0
   -3.5040   -0.2230   -0.3232 N   0  0  0  0  0  0  0  0  0  0  0  0
   -4.6101   -0.3778   -0.3924 N   0  0  0  0  0  0  0  0  0  0  0  0
   -1.8097    1.3876    0.0611 C   0  0  0  0  0  0  0  0  0  0  0  0
   -0.4266    1.5611    0.1501 C   0  0  0  0  0  0  0  0  0  0  0  0
    0.5004    0.5166   -0.0212 C   0  0  0  0  0  0  0  0  0  0  0  0
    1.7998    0.8531    0.1000 O   0  0  0  0  0  0  0  0  0  0  0  0
    2.8081   -0.1438   -0.0491 C   0  0  0  0  0  0  0  0  0  0  0  0
    0.0659   -0.8060   -0.3041 C   0  0  0  0  0  0  0  0  0  0  0  0
   -1.2842   -1.0533   -0.4070 C   0  0  0  0  0  0  0  0  0  0  0  0
   -2.8741    2.6511    0.2756 H   0  0  0  0  0  0  0  0  0  0  0  0
   -0.0096    2.5430    0.3646 H   0  0  0  0  0  0  0  0  0  0  0  0
    3.7569    0.3718    0.0996 H   0  0  0  0  0  0  0  0  0  0  0  0
    2.7895   -0.5850   -1.0522 H   0  0  0  0  0  0  0  0  0  0  0  0
    2.7033   -0.9343    0.7031 H   0  0  0  0  0  0  0  0  0  0  0  0
    0.7723   -1.6149   -0.4391 H   0  0  0  0  0  0  0  0  0  0  0  0
   -1.6591   -2.0497   -0.6226 H   0  0  0  0  0  0  0  0  0  0  0  0
   -3.4880    3.5284    0.4297 O   0  0  0  0  0  0  0  0  0  0  0  0
   -4.7567    3.2411    0.4197 C   0  0  0  0  0  0  0  0  0  0  0  0
   -5.2926    2.1575    0.2551 O   0  0  0  0  0  0  0  0  0  0  0  0
   -5.6144    4.5095    0.6487 C   0  0  0  0  0  0  0  0  0  0  0  0
   -5.4122    5.4030   -0.3417 F   0  0  0  0  0  0  0  0  0  0  0  0
   -6.9205    4.2134    0.6818 F   0  0  0  0  0  0  0  0  0  0  0  0
   -5.2897    5.1042    1.8144 F   0  0  0  0  0  0  0  0  0  0  0  0
  1  4  2  0  0  0  0
  2  1  1  0  0  0  0
  3  2  1  0  0  0  0
  4  5  1  0  0  0  0
  5 12  1  0  0  0  0
  6  7  1  0  0  0  0
  6  5  2  0  0  0  0
  8 13  1  0  0  0  0
  8  7  1  0  0  0  0
  8 15  1  0  0  0  0
  9  6  1  0  0  0  0
 10  9  2  0  0  0  0
 10  1  1  0  0  0  0
 11 18  1  0  0  0  0
 14  8  1  0  0  0  0
 16  9  1  0  0  0  0
 17 10  1  0  0  0  0
 19 18  1  0  0  0  0
 19 21  1  0  0  0  0
 20 19  2  0  0  0  0
 21 23  1  0  0  0  0
 21 24  1  0  0  0  0
 22 21  1  0  0  0  0
M  RAD  3   2   2   3   3   4   2
M  END
