Coordinates from ORCA-job 4-MeOPhN2+~CF3COO-_B3LYPG-6-31G_dp-CH-Scan-d09-49-n800
 OpenBabel11261919493D

 24 23  0  0  0  0  0  0  0  0999 V2000
   -1.9041    0.0435   -0.1989 C   0  0  0  0  0  0  0  0  0  0  0  0
   -3.2676   -0.1271   -0.2753 N   0  0  0  0  0  0  0  0  0  0  0  0
   -4.3832   -0.2221   -0.3288 N   0  0  0  0  0  0  0  0  0  0  0  0
   -1.4833    1.3662    0.0808 C   0  0  0  0  0  0  0  0  0  0  0  0
   -0.0832    1.4394    0.1419 C   0  0  0  0  0  0  0  0  0  0  0  0
    0.7692    0.3392   -0.0493 C   0  0  0  0  0  0  0  0  0  0  0  0
    2.0950    0.5871    0.0486 O   0  0  0  0  0  0  0  0  0  0  0  0
    3.0287   -0.4738   -0.1229 C   0  0  0  0  0  0  0  0  0  0  0  0
    0.2488   -0.9561   -0.3287 C   0  0  0  0  0  0  0  0  0  0  0  0
   -1.1145   -1.1181   -0.4072 C   0  0  0  0  0  0  0  0  0  0  0  0
   -3.2400    3.4022    0.4349 H   0  0  0  0  0  0  0  0  0  0  0  0
    0.4119    2.3875    0.3503 H   0  0  0  0  0  0  0  0  0  0  0  0
    4.0141   -0.0260    0.0101 H   0  0  0  0  0  0  0  0  0  0  0  0
    2.9640   -0.9092   -1.1272 H   0  0  0  0  0  0  0  0  0  0  0  0
    2.8859   -1.2611    0.6268 H   0  0  0  0  0  0  0  0  0  0  0  0
    0.9024   -1.8059   -0.4787 H   0  0  0  0  0  0  0  0  0  0  0  0
   -1.5570   -2.0881   -0.6192 H   0  0  0  0  0  0  0  0  0  0  0  0
   -3.9130    4.1057    0.5565 O   0  0  0  0  0  0  0  0  0  0  0  0
   -5.1217    3.5669    0.4698 C   0  0  0  0  0  0  0  0  0  0  0  0
   -5.3985    2.4077    0.2749 O   0  0  0  0  0  0  0  0  0  0  0  0
   -6.1997    4.6587    0.6522 C   0  0  0  0  0  0  0  0  0  0  0  0
   -6.0909    5.5883   -0.3151 F   0  0  0  0  0  0  0  0  0  0  0  0
   -7.4220    4.1234    0.5930 F   0  0  0  0  0  0  0  0  0  0  0  0
   -6.0560    5.2704    1.8418 F   0  0  0  0  0  0  0  0  0  0  0  0
  1  4  2  0  0  0  0
  2  1  1  0  0  0  0
  3  2  1  0  0  0  0
  4  5  1  0  0  0  0
  5 12  1  0  0  0  0
  6  7  1  0  0  0  0
  6  5  2  0  0  0  0
  8 13  1  0  0  0  0
  8  7  1  0  0  0  0
  8 15  1  0  0  0  0
  9  6  1  0  0  0  0
 10  9  2  0  0  0  0
 10  1  1  0  0  0  0
 11 18  1  0  0  0  0
 14  8  1  0  0  0  0
 16  9  1  0  0  0  0
 17 10  1  0  0  0  0
 19 18  1  0  0  0  0
 19 21  1  0  0  0  0
 20 19  2  0  0  0  0
 21 24  1  0  0  0  0
 22 21  1  0  0  0  0
 23 21  1  0  0  0  0
M  RAD  3   2   2   3   3   4   2
M  END
