Coordinates from ORCA-job 4-MeOPhN2+~CF3COO-_B3LYPG-6-31G_dp-CH-Scan-d09-49-n800
 OpenBabel11261919493D

 24 23  0  0  0  0  0  0  0  0999 V2000
   -1.5859    0.0858   -0.1370 C   0  0  0  0  0  0  0  0  0  0  0  0
   -2.9639    0.0571   -0.1672 N   0  0  0  0  0  0  0  0  0  0  0  0
   -4.0856    0.0878   -0.1808 N   0  0  0  0  0  0  0  0  0  0  0  0
   -1.0459    1.3661    0.1332 C   0  0  0  0  0  0  0  0  0  0  0  0
    0.3605    1.2970    0.1445 C   0  0  0  0  0  0  0  0  0  0  0  0
    1.0967    0.1236   -0.0809 C   0  0  0  0  0  0  0  0  0  0  0  0
    2.4460    0.2421   -0.0321 O   0  0  0  0  0  0  0  0  0  0  0  0
    3.2645   -0.9005   -0.2499 C   0  0  0  0  0  0  0  0  0  0  0  0
    0.4478   -1.1177   -0.3449 C   0  0  0  0  0  0  0  0  0  0  0  0
   -0.9261   -1.1497   -0.3762 C   0  0  0  0  0  0  0  0  0  0  0  0
   -3.6920    4.3556    0.7106 H   0  0  0  0  0  0  0  0  0  0  0  0
    0.9547    2.1912    0.3378 H   0  0  0  0  0  0  0  0  0  0  0  0
    4.2939   -0.5504   -0.1618 H   0  0  0  0  0  0  0  0  0  0  0  0
    3.1131   -1.3218   -1.2514 H   0  0  0  0  0  0  0  0  0  0  0  0
    3.0828   -1.6774    0.5027 H   0  0  0  0  0  0  0  0  0  0  0  0
    1.0140   -2.0238   -0.5193 H   0  0  0  0  0  0  0  0  0  0  0  0
   -1.4673   -2.0720   -0.5744 H   0  0  0  0  0  0  0  0  0  0  0  0
   -4.5274    4.8518    0.7605 O   0  0  0  0  0  0  0  0  0  0  0  0
   -5.5276    3.9983    0.5249 C   0  0  0  0  0  0  0  0  0  0  0  0
   -5.4299    2.8213    0.2914 O   0  0  0  0  0  0  0  0  0  0  0  0
   -6.8804    4.7386    0.6042 C   0  0  0  0  0  0  0  0  0  0  0  0
   -6.9032    5.7738   -0.2530 F   0  0  0  0  0  0  0  0  0  0  0  0
   -7.8796    3.9078    0.3018 F   0  0  0  0  0  0  0  0  0  0  0  0
   -7.0740    5.2140    1.8475 F   0  0  0  0  0  0  0  0  0  0  0  0
  1  4  2  0  0  0  0
  2  1  1  0  0  0  0
  3  2  1  0  0  0  0
  4  5  1  0  0  0  0
  5 12  1  0  0  0  0
  6  7  1  0  0  0  0
  6  5  2  0  0  0  0
  8 13  1  0  0  0  0
  8  7  1  0  0  0  0
  8 15  1  0  0  0  0
  9  6  1  0  0  0  0
 10  9  2  0  0  0  0
 10  1  1  0  0  0  0
 11 18  1  0  0  0  0
 14  8  1  0  0  0  0
 16  9  1  0  0  0  0
 17 10  1  0  0  0  0
 19 21  1  0  0  0  0
 19 18  1  0  0  0  0
 20 19  2  0  0  0  0
 21 24  1  0  0  0  0
 22 21  1  0  0  0  0
 23 21  1  0  0  0  0
M  RAD  3   2   2   3   3   4   2
M  END
