Coordinates from ORCA-job 4-MeOPhN2+~CF3COO-_B3LYPG-6-31G_dp-CH-Scan-d09-49-n800
 OpenBabel11261919493D

 24 23  0  0  0  0  0  0  0  0999 V2000
   -1.8085    0.0510   -0.1638 C   0  0  0  0  0  0  0  0  0  0  0  0
   -3.1783   -0.0795   -0.2203 N   0  0  0  0  0  0  0  0  0  0  0  0
   -4.2973   -0.1407   -0.2579 N   0  0  0  0  0  0  0  0  0  0  0  0
   -1.3530    1.3631    0.1112 C   0  0  0  0  0  0  0  0  0  0  0  0
    0.0513    1.3951    0.1487 C   0  0  0  0  0  0  0  0  0  0  0  0
    0.8701    0.2731   -0.0586 C   0  0  0  0  0  0  0  0  0  0  0  0
    2.2050    0.4843    0.0156 O   0  0  0  0  0  0  0  0  0  0  0  0
    3.1052   -0.6008   -0.1775 C   0  0  0  0  0  0  0  0  0  0  0  0
    0.3111   -1.0084   -0.3301 C   0  0  0  0  0  0  0  0  0  0  0  0
   -1.0570   -1.1336   -0.3861 C   0  0  0  0  0  0  0  0  0  0  0  0
   -3.3621    3.6888    0.5377 H   0  0  0  0  0  0  0  0  0  0  0  0
    0.5771    2.3287    0.3497 H   0  0  0  0  0  0  0  0  0  0  0  0
    4.1053   -0.1805   -0.0658 H   0  0  0  0  0  0  0  0  0  0  0  0
    3.0070   -1.0331   -1.1807 H   0  0  0  0  0  0  0  0  0  0  0  0
    2.9579   -1.3858    0.5740 H   0  0  0  0  0  0  0  0  0  0  0  0
    0.9396   -1.8749   -0.4911 H   0  0  0  0  0  0  0  0  0  0  0  0
   -1.5294   -2.0911   -0.5913 H   0  0  0  0  0  0  0  0  0  0  0  0
   -4.0868    4.3357    0.6313 O   0  0  0  0  0  0  0  0  0  0  0  0
   -5.2445    3.6979    0.4800 C   0  0  0  0  0  0  0  0  0  0  0  0
   -5.4072    2.5223    0.2659 O   0  0  0  0  0  0  0  0  0  0  0  0
   -6.4164    4.6936    0.6252 C   0  0  0  0  0  0  0  0  0  0  0  0
   -6.2993    5.6932   -0.2669 F   0  0  0  0  0  0  0  0  0  0  0  0
   -7.5810    4.0726    0.4216 F   0  0  0  0  0  0  0  0  0  0  0  0
   -6.4233    5.2278    1.8598 F   0  0  0  0  0  0  0  0  0  0  0  0
  1  4  2  0  0  0  0
  2  1  1  0  0  0  0
  3  2  1  0  0  0  0
  4  5  1  0  0  0  0
  5 12  1  0  0  0  0
  6  7  1  0  0  0  0
  6  5  2  0  0  0  0
  8 13  1  0  0  0  0
  8  7  1  0  0  0  0
  8 15  1  0  0  0  0
  9  6  1  0  0  0  0
 10  9  2  0  0  0  0
 10  1  1  0  0  0  0
 11 18  1  0  0  0  0
 14  8  1  0  0  0  0
 16  9  1  0  0  0  0
 17 10  1  0  0  0  0
 19 21  1  0  0  0  0
 19 18  1  0  0  0  0
 20 19  2  0  0  0  0
 21 24  1  0  0  0  0
 22 21  1  0  0  0  0
 23 21  1  0  0  0  0
M  RAD  3   2   2   3   3   4   2
M  END
