Coordinates from ORCA-job 4-MeOPhN2+~CF3COO-_B3LYPG-6-31G_dp-CH-Scan-d09-49-n800
 OpenBabel11261919493D

 24 23  0  0  0  0  0  0  0  0999 V2000
   -1.9092    0.0432   -0.1990 C   0  0  0  0  0  0  0  0  0  0  0  0
   -3.2724   -0.1296   -0.2754 N   0  0  0  0  0  0  0  0  0  0  0  0
   -4.3877   -0.2260   -0.3317 N   0  0  0  0  0  0  0  0  0  0  0  0
   -1.4901    1.3665    0.0806 C   0  0  0  0  0  0  0  0  0  0  0  0
   -0.0901    1.4418    0.1422 C   0  0  0  0  0  0  0  0  0  0  0  0
    0.7639    0.3428   -0.0488 C   0  0  0  0  0  0  0  0  0  0  0  0
    2.0892    0.5925    0.0494 O   0  0  0  0  0  0  0  0  0  0  0  0
    3.0245   -0.4671   -0.1216 C   0  0  0  0  0  0  0  0  0  0  0  0
    0.2452   -0.9532   -0.3283 C   0  0  0  0  0  0  0  0  0  0  0  0
   -1.1178   -1.1172   -0.4071 C   0  0  0  0  0  0  0  0  0  0  0  0
   -3.2333    3.3877    0.4327 H   0  0  0  0  0  0  0  0  0  0  0  0
    0.4034    2.3906    0.3507 H   0  0  0  0  0  0  0  0  0  0  0  0
    4.0092   -0.0179    0.0118 H   0  0  0  0  0  0  0  0  0  0  0  0
    2.9608   -0.9027   -1.1259 H   0  0  0  0  0  0  0  0  0  0  0  0
    2.8824   -1.2545    0.6282 H   0  0  0  0  0  0  0  0  0  0  0  0
    0.9000   -1.8022   -0.4780 H   0  0  0  0  0  0  0  0  0  0  0  0
   -1.5589   -2.0878   -0.6191 H   0  0  0  0  0  0  0  0  0  0  0  0
   -3.9040    4.0939    0.5553 O   0  0  0  0  0  0  0  0  0  0  0  0
   -5.1146    3.5602    0.4688 C   0  0  0  0  0  0  0  0  0  0  0  0
   -5.3968    2.4022    0.2734 O   0  0  0  0  0  0  0  0  0  0  0  0
   -6.1881    4.6563    0.6521 C   0  0  0  0  0  0  0  0  0  0  0  0
   -6.0772    5.5848   -0.3161 F   0  0  0  0  0  0  0  0  0  0  0  0
   -7.4127    4.1258    0.5952 F   0  0  0  0  0  0  0  0  0  0  0  0
   -6.0404    5.2684    1.8410 F   0  0  0  0  0  0  0  0  0  0  0  0
  1  4  2  0  0  0  0
  2  1  1  0  0  0  0
  3  2  1  0  0  0  0
  4  5  1  0  0  0  0
  5 12  1  0  0  0  0
  6  7  1  0  0  0  0
  6  5  2  0  0  0  0
  8 13  1  0  0  0  0
  8  7  1  0  0  0  0
  8 15  1  0  0  0  0
  9  6  1  0  0  0  0
 10  9  2  0  0  0  0
 10  1  1  0  0  0  0
 11 18  1  0  0  0  0
 14  8  1  0  0  0  0
 16  9  1  0  0  0  0
 17 10  1  0  0  0  0
 19 18  1  0  0  0  0
 19 21  1  0  0  0  0
 20 19  2  0  0  0  0
 21 24  1  0  0  0  0
 22 21  1  0  0  0  0
 23 21  1  0  0  0  0
M  RAD  3   2   2   3   3   4   2
M  END
