Coordinates from ORCA-job 4-MeOPhN2+~CF3COO-_B3LYPG-6-31G_dp-CH-Scan-d09-49-n800
 OpenBabel11261919493D

 24 23  0  0  0  0  0  0  0  0999 V2000
   -2.0170    0.0396   -0.2040 C   0  0  0  0  0  0  0  0  0  0  0  0
   -3.3724   -0.1781   -0.2901 N   0  0  0  0  0  0  0  0  0  0  0  0
   -4.4829   -0.3121   -0.3509 N   0  0  0  0  0  0  0  0  0  0  0  0
   -1.6325    1.3723    0.0827 C   0  0  0  0  0  0  0  0  0  0  0  0
   -0.2377    1.4904    0.1536 C   0  0  0  0  0  0  0  0  0  0  0  0
    0.6498    0.4170   -0.0355 C   0  0  0  0  0  0  0  0  0  0  0  0
    1.9649    0.7061    0.0722 O   0  0  0  0  0  0  0  0  0  0  0  0
    2.9332   -0.3251   -0.0944 C   0  0  0  0  0  0  0  0  0  0  0  0
    0.1699   -0.8912   -0.3223 C   0  0  0  0  0  0  0  0  0  0  0  0
   -1.1877   -1.0934   -0.4101 C   0  0  0  0  0  0  0  0  0  0  0  0
   -3.0931    3.0791    0.3846 H   0  0  0  0  0  0  0  0  0  0  0  0
    0.2241    2.4530    0.3688 H   0  0  0  0  0  0  0  0  0  0  0  0
    3.9026    0.1535    0.0476 H   0  0  0  0  0  0  0  0  0  0  0  0
    2.8895   -0.7591   -1.1003 H   0  0  0  0  0  0  0  0  0  0  0  0
    2.8086   -1.1178    0.6527 H   0  0  0  0  0  0  0  0  0  0  0  0
    0.8488   -1.7210   -0.4709 H   0  0  0  0  0  0  0  0  0  0  0  0
   -1.5990   -2.0754   -0.6279 H   0  0  0  0  0  0  0  0  0  0  0  0
   -3.7169    3.8437    0.5193 O   0  0  0  0  0  0  0  0  0  0  0  0
   -4.9641    3.4208    0.4468 C   0  0  0  0  0  0  0  0  0  0  0  0
   -5.3583    2.2930    0.2496 O   0  0  0  0  0  0  0  0  0  0  0  0
   -5.9406    4.6024    0.6457 C   0  0  0  0  0  0  0  0  0  0  0  0
   -5.7840    5.5094   -0.3379 F   0  0  0  0  0  0  0  0  0  0  0  0
   -7.2071    4.1750    0.6294 F   0  0  0  0  0  0  0  0  0  0  0  0
   -5.7126    5.2166    1.8215 F   0  0  0  0  0  0  0  0  0  0  0  0
  1  4  2  0  0  0  0
  2  1  1  0  0  0  0
  3  2  1  0  0  0  0
  4  5  1  0  0  0  0
  5 12  1  0  0  0  0
  6  7  1  0  0  0  0
  6  5  2  0  0  0  0
  8 13  1  0  0  0  0
  8  7  1  0  0  0  0
  8 15  1  0  0  0  0
  9  6  1  0  0  0  0
 10  9  2  0  0  0  0
 10  1  1  0  0  0  0
 11 18  1  0  0  0  0
 14  8  1  0  0  0  0
 16  9  1  0  0  0  0
 17 10  1  0  0  0  0
 19 18  1  0  0  0  0
 19 21  1  0  0  0  0
 20 19  2  0  0  0  0
 21 24  1  0  0  0  0
 22 21  1  0  0  0  0
 23 21  1  0  0  0  0
M  RAD  3   2   2   3   3   4   2
M  END
