Coordinates from ORCA-job 4-MeOPhN2+~CF3COO-_B3LYPG-6-31G_dp-CH-Scan-d09-49-n800
 OpenBabel11261919493D

 24 23  0  0  0  0  0  0  0  0999 V2000
   -2.1377    0.0410   -0.2157 C   0  0  0  0  0  0  0  0  0  0  0  0
   -3.4833   -0.2227   -0.3155 N   0  0  0  0  0  0  0  0  0  0  0  0
   -4.5891   -0.3819   -0.3842 N   0  0  0  0  0  0  0  0  0  0  0  0
   -1.7862    1.3832    0.0687 C   0  0  0  0  0  0  0  0  0  0  0  0
   -0.4003    1.5481    0.1536 C   0  0  0  0  0  0  0  0  0  0  0  0
    0.5220    0.5008   -0.0228 C   0  0  0  0  0  0  0  0  0  0  0  0
    1.8239    0.8317    0.0957 O   0  0  0  0  0  0  0  0  0  0  0  0
    2.8271   -0.1691   -0.0582 C   0  0  0  0  0  0  0  0  0  0  0  0
    0.0825   -0.8201   -0.3080 C   0  0  0  0  0  0  0  0  0  0  0  0
   -1.2684   -1.0619   -0.4078 C   0  0  0  0  0  0  0  0  0  0  0  0
   -2.9173    2.7262    0.2999 H   0  0  0  0  0  0  0  0  0  0  0  0
    0.0240    2.5269    0.3695 H   0  0  0  0  0  0  0  0  0  0  0  0
    3.7787    0.3417    0.0895 H   0  0  0  0  0  0  0  0  0  0  0  0
    2.8046   -0.6079   -1.0623 H   0  0  0  0  0  0  0  0  0  0  0  0
    2.7209   -0.9613    0.6921 H   0  0  0  0  0  0  0  0  0  0  0  0
    0.7859   -1.6309   -0.4470 H   0  0  0  0  0  0  0  0  0  0  0  0
   -1.6480   -2.0564   -0.6250 H   0  0  0  0  0  0  0  0  0  0  0  0
   -3.5207    3.5751    0.4499 O   0  0  0  0  0  0  0  0  0  0  0  0
   -4.7896    3.2690    0.4234 C   0  0  0  0  0  0  0  0  0  0  0  0
   -5.3040    2.1794    0.2484 O   0  0  0  0  0  0  0  0  0  0  0  0
   -5.6620    4.5275    0.6462 C   0  0  0  0  0  0  0  0  0  0  0  0
   -5.4607    5.4226   -0.3422 F   0  0  0  0  0  0  0  0  0  0  0  0
   -6.9635    4.2140    0.6673 F   0  0  0  0  0  0  0  0  0  0  0  0
   -5.3535    5.1238    1.8147 F   0  0  0  0  0  0  0  0  0  0  0  0
  1  4  2  0  0  0  0
  2  1  1  0  0  0  0
  3  2  1  0  0  0  0
  4  5  1  0  0  0  0
  5 12  1  0  0  0  0
  6  7  1  0  0  0  0
  6  5  2  0  0  0  0
  8 13  1  0  0  0  0
  8  7  1  0  0  0  0
  8 15  1  0  0  0  0
  9  6  1  0  0  0  0
 10  9  2  0  0  0  0
 10  1  1  0  0  0  0
 11 18  1  0  0  0  0
 14  8  1  0  0  0  0
 16  9  1  0  0  0  0
 17 10  1  0  0  0  0
 19 18  1  0  0  0  0
 19 21  1  0  0  0  0
 20 19  2  0  0  0  0
 21 23  1  0  0  0  0
 21 24  1  0  0  0  0
 22 21  1  0  0  0  0
M  RAD  3   2   2   3   3   4   2
M  END
