Coordinates from ORCA-job 4-MeOPhN2+~CF3COO-_B3LYPG-6-31G_dp-CH-Scan-d09-49-n800
 OpenBabel11261919493D

 24 23  0  0  0  0  0  0  0  0999 V2000
   -1.8447    0.0481   -0.1729 C   0  0  0  0  0  0  0  0  0  0  0  0
   -3.2123   -0.0977   -0.2357 N   0  0  0  0  0  0  0  0  0  0  0  0
   -4.3302   -0.1718   -0.2785 N   0  0  0  0  0  0  0  0  0  0  0  0
   -1.4021    1.3645    0.1028 C   0  0  0  0  0  0  0  0  0  0  0  0
    0.0009    1.4121    0.1472 C   0  0  0  0  0  0  0  0  0  0  0  0
    0.8323    0.2983   -0.0551 C   0  0  0  0  0  0  0  0  0  0  0  0
    2.1641    0.5235    0.0256 O   0  0  0  0  0  0  0  0  0  0  0  0
    3.0768   -0.5525   -0.1611 C   0  0  0  0  0  0  0  0  0  0  0  0
    0.2876   -0.9888   -0.3280 C   0  0  0  0  0  0  0  0  0  0  0  0
   -1.0789   -1.1281   -0.3904 C   0  0  0  0  0  0  0  0  0  0  0  0
   -3.3148    3.5782    0.5014 H   0  0  0  0  0  0  0  0  0  0  0  0
    0.5155    2.3514    0.3498 H   0  0  0  0  0  0  0  0  0  0  0  0
    4.0717   -0.1215   -0.0438 H   0  0  0  0  0  0  0  0  0  0  0  0
    2.9890   -0.9865   -1.1644 H   0  0  0  0  0  0  0  0  0  0  0  0
    2.9330   -1.3381    0.5903 H   0  0  0  0  0  0  0  0  0  0  0  0
    0.9255   -1.8492   -0.4852 H   0  0  0  0  0  0  0  0  0  0  0  0
   -1.5404   -2.0906   -0.5970 H   0  0  0  0  0  0  0  0  0  0  0  0
   -4.0196    4.2478    0.6028 O   0  0  0  0  0  0  0  0  0  0  0  0
   -5.1984    3.6476    0.4750 C   0  0  0  0  0  0  0  0  0  0  0  0
   -5.4052    2.4766    0.2708 O   0  0  0  0  0  0  0  0  0  0  0  0
   -6.3353    4.6816    0.6320 C   0  0  0  0  0  0  0  0  0  0  0  0
   -6.2055    5.6664   -0.2749 F   0  0  0  0  0  0  0  0  0  0  0  0
   -7.5234    4.0961    0.4601 F   0  0  0  0  0  0  0  0  0  0  0  0
   -6.3002    5.2311    1.8596 F   0  0  0  0  0  0  0  0  0  0  0  0
  1  4  2  0  0  0  0
  2  1  1  0  0  0  0
  3  2  1  0  0  0  0
  4  5  1  0  0  0  0
  5 12  1  0  0  0  0
  6  7  1  0  0  0  0
  6  5  2  0  0  0  0
  8 13  1  0  0  0  0
  8  7  1  0  0  0  0
  8 15  1  0  0  0  0
  9  6  1  0  0  0  0
 10  9  2  0  0  0  0
 10  1  1  0  0  0  0
 11 18  1  0  0  0  0
 14  8  1  0  0  0  0
 16  9  1  0  0  0  0
 17 10  1  0  0  0  0
 19 18  1  0  0  0  0
 19 21  1  0  0  0  0
 20 19  2  0  0  0  0
 21 24  1  0  0  0  0
 22 21  1  0  0  0  0
 23 21  1  0  0  0  0
M  RAD  3   2   2   3   3   4   2
M  END
