Coordinates from ORCA-job 4-MeOPhN2+~CF3COO-_B3LYPG-6-31G_dp-CH-Scan-d09-49-n800
 OpenBabel11261919493D

 24 23  0  0  0  0  0  0  0  0999 V2000
   -1.9779    0.0407   -0.2033 C   0  0  0  0  0  0  0  0  0  0  0  0
   -3.3362   -0.1606   -0.2857 N   0  0  0  0  0  0  0  0  0  0  0  0
   -4.4486   -0.2820   -0.3439 N   0  0  0  0  0  0  0  0  0  0  0  0
   -1.5808    1.3701    0.0808 C   0  0  0  0  0  0  0  0  0  0  0  0
   -0.1841    1.4729    0.1486 C   0  0  0  0  0  0  0  0  0  0  0  0
    0.6914    0.3900   -0.0408 C   0  0  0  0  0  0  0  0  0  0  0  0
    2.0103    0.6648    0.0640 O   0  0  0  0  0  0  0  0  0  0  0  0
    2.9668   -0.3769   -0.1032 C   0  0  0  0  0  0  0  0  0  0  0  0
    0.1975   -0.9140   -0.3249 C   0  0  0  0  0  0  0  0  0  0  0  0
   -1.1622   -1.1024   -0.4098 C   0  0  0  0  0  0  0  0  0  0  0  0
   -3.1441    3.1919    0.4012 H   0  0  0  0  0  0  0  0  0  0  0  0
    0.2894    2.4306    0.3612 H   0  0  0  0  0  0  0  0  0  0  0  0
    3.9418    0.0910    0.0364 H   0  0  0  0  0  0  0  0  0  0  0  0
    2.9166   -0.8118   -1.1084 H   0  0  0  0  0  0  0  0  0  0  0  0
    2.8351   -1.1676    0.6449 H   0  0  0  0  0  0  0  0  0  0  0  0
    0.8679   -1.7507   -0.4737 H   0  0  0  0  0  0  0  0  0  0  0  0
   -1.5841   -2.0805   -0.6256 H   0  0  0  0  0  0  0  0  0  0  0  0
   -3.7837    3.9349    0.5317 O   0  0  0  0  0  0  0  0  0  0  0  0
   -5.0191    3.4713    0.4548 C   0  0  0  0  0  0  0  0  0  0  0  0
   -5.3726    2.3313    0.2579 O   0  0  0  0  0  0  0  0  0  0  0  0
   -6.0313    4.6229    0.6490 C   0  0  0  0  0  0  0  0  0  0  0  0
   -5.8928    5.5368   -0.3303 F   0  0  0  0  0  0  0  0  0  0  0  0
   -7.2836    4.1573    0.6207 F   0  0  0  0  0  0  0  0  0  0  0  0
   -5.8302    5.2385    1.8287 F   0  0  0  0  0  0  0  0  0  0  0  0
  1  4  2  0  0  0  0
  2  1  1  0  0  0  0
  3  2  1  0  0  0  0
  4  5  1  0  0  0  0
  5 12  1  0  0  0  0
  6  7  1  0  0  0  0
  6  5  2  0  0  0  0
  8 13  1  0  0  0  0
  8  7  1  0  0  0  0
  8 15  1  0  0  0  0
  9  6  1  0  0  0  0
 10  9  2  0  0  0  0
 10  1  1  0  0  0  0
 11 18  1  0  0  0  0
 14  8  1  0  0  0  0
 16  9  1  0  0  0  0
 17 10  1  0  0  0  0
 19 18  1  0  0  0  0
 19 21  1  0  0  0  0
 20 19  2  0  0  0  0
 21 24  1  0  0  0  0
 22 21  1  0  0  0  0
 23 21  1  0  0  0  0
M  RAD  3   2   2   3   3   4   2
M  END
