Coordinates from ORCA-job 4-MeOPhN2+~CF3COO-_B3LYPG-6-31G_dp-CH-Scan-d09-49-n800
 OpenBabel11261919493D

 24 23  0  0  0  0  0  0  0  0999 V2000
   -1.5714    0.0920   -0.1485 C   0  0  0  0  0  0  0  0  0  0  0  0
   -2.9496    0.0711   -0.1825 N   0  0  0  0  0  0  0  0  0  0  0  0
   -4.0710    0.1082   -0.1992 N   0  0  0  0  0  0  0  0  0  0  0  0
   -1.0253    1.3698    0.1211 C   0  0  0  0  0  0  0  0  0  0  0  0
    0.3808    1.2925    0.1376 C   0  0  0  0  0  0  0  0  0  0  0  0
    1.1110    0.1144   -0.0825 C   0  0  0  0  0  0  0  0  0  0  0  0
    2.4608    0.2252   -0.0286 O   0  0  0  0  0  0  0  0  0  0  0  0
    3.2733   -0.9228   -0.2402 C   0  0  0  0  0  0  0  0  0  0  0  0
    0.4559   -1.1236   -0.3468 C   0  0  0  0  0  0  0  0  0  0  0  0
   -0.9181   -1.1478   -0.3831 C   0  0  0  0  0  0  0  0  0  0  0  0
   -3.7136    4.4054    0.6858 H   0  0  0  0  0  0  0  0  0  0  0  0
    0.9794    2.1837    0.3313 H   0  0  0  0  0  0  0  0  0  0  0  0
    4.3045   -0.5787   -0.1483 H   0  0  0  0  0  0  0  0  0  0  0  0
    3.1240   -1.3454   -1.2414 H   0  0  0  0  0  0  0  0  0  0  0  0
    3.0835   -1.6969    0.5132 H   0  0  0  0  0  0  0  0  0  0  0  0
    1.0176   -2.0333   -0.5175 H   0  0  0  0  0  0  0  0  0  0  0  0
   -1.4638   -2.0673   -0.5816 H   0  0  0  0  0  0  0  0  0  0  0  0
   -4.5560    4.8883    0.7457 O   0  0  0  0  0  0  0  0  0  0  0  0
   -5.5452    4.0177    0.5247 C   0  0  0  0  0  0  0  0  0  0  0  0
   -5.4309    2.8422    0.2916 O   0  0  0  0  0  0  0  0  0  0  0  0
   -6.9089    4.7360    0.6204 C   0  0  0  0  0  0  0  0  0  0  0  0
   -6.9627    5.7633   -0.2448 F   0  0  0  0  0  0  0  0  0  0  0  0
   -7.8986    3.8861    0.3410 F   0  0  0  0  0  0  0  0  0  0  0  0
   -7.0902    5.2185    1.8627 F   0  0  0  0  0  0  0  0  0  0  0  0
  1  4  2  0  0  0  0
  2  1  1  0  0  0  0
  3  2  1  0  0  0  0
  4  5  1  0  0  0  0
  5 12  1  0  0  0  0
  6  7  1  0  0  0  0
  6  5  2  0  0  0  0
  8 13  1  0  0  0  0
  8  7  1  0  0  0  0
  8 15  1  0  0  0  0
  9  6  1  0  0  0  0
 10  9  2  0  0  0  0
 10  1  1  0  0  0  0
 11 18  1  0  0  0  0
 14  8  1  0  0  0  0
 16  9  1  0  0  0  0
 17 10  1  0  0  0  0
 19 21  1  0  0  0  0
 19 18  1  0  0  0  0
 20 19  2  0  0  0  0
 21 24  1  0  0  0  0
 22 21  1  0  0  0  0
 23 21  1  0  0  0  0
M  RAD  3   2   2   3   3   4   2
M  END
