Coordinates from ORCA-job 4-MeOPhN2+~CF3COO-_B3LYPG-6-31G_dp-CH-Scan-d09-49-n800
 OpenBabel11261919493D

 24 23  0  0  0  0  0  0  0  0999 V2000
   -1.8640    0.0460   -0.1815 C   0  0  0  0  0  0  0  0  0  0  0  0
   -3.2303   -0.1079   -0.2493 N   0  0  0  0  0  0  0  0  0  0  0  0
   -4.3475   -0.1884   -0.2960 N   0  0  0  0  0  0  0  0  0  0  0  0
   -1.4289    1.3644    0.0967 C   0  0  0  0  0  0  0  0  0  0  0  0
   -0.0268    1.4207    0.1467 C   0  0  0  0  0  0  0  0  0  0  0  0
    0.8118    0.3116   -0.0528 C   0  0  0  0  0  0  0  0  0  0  0  0
    2.1416    0.5445    0.0338 O   0  0  0  0  0  0  0  0  0  0  0  0
    3.0615   -0.5262   -0.1490 C   0  0  0  0  0  0  0  0  0  0  0  0
    0.2753   -0.9782   -0.3289 C   0  0  0  0  0  0  0  0  0  0  0  0
   -1.0902   -1.1252   -0.3968 C   0  0  0  0  0  0  0  0  0  0  0  0
   -3.2910    3.5173    0.4819 H   0  0  0  0  0  0  0  0  0  0  0  0
    0.4812    2.3628    0.3521 H   0  0  0  0  0  0  0  0  0  0  0  0
    4.0533   -0.0896   -0.0261 H   0  0  0  0  0  0  0  0  0  0  0  0
    2.9814   -0.9599   -1.1530 H   0  0  0  0  0  0  0  0  0  0  0  0
    2.9182   -1.3130    0.6013 H   0  0  0  0  0  0  0  0  0  0  0  0
    0.9186   -1.8348   -0.4843 H   0  0  0  0  0  0  0  0  0  0  0  0
   -1.5452   -2.0901   -0.6060 H   0  0  0  0  0  0  0  0  0  0  0  0
   -3.9847    4.1991    0.5891 O   0  0  0  0  0  0  0  0  0  0  0  0
   -5.1746    3.6203    0.4752 C   0  0  0  0  0  0  0  0  0  0  0  0
   -5.4060    2.4527    0.2758 O   0  0  0  0  0  0  0  0  0  0  0  0
   -6.2910    4.6757    0.6378 C   0  0  0  0  0  0  0  0  0  0  0  0
   -6.1664    5.6382   -0.2940 F   0  0  0  0  0  0  0  0  0  0  0  0
   -7.4924    4.1071    0.5064 F   0  0  0  0  0  0  0  0  0  0  0  0
   -6.2185    5.2517    1.8514 F   0  0  0  0  0  0  0  0  0  0  0  0
  1  4  2  0  0  0  0
  2  1  1  0  0  0  0
  3  2  1  0  0  0  0
  4  5  1  0  0  0  0
  5 12  1  0  0  0  0
  6  7  1  0  0  0  0
  6  5  2  0  0  0  0
  8 13  1  0  0  0  0
  8  7  1  0  0  0  0
  8 15  1  0  0  0  0
  9  6  1  0  0  0  0
 10  9  2  0  0  0  0
 10  1  1  0  0  0  0
 11 18  1  0  0  0  0
 14  8  1  0  0  0  0
 16  9  1  0  0  0  0
 17 10  1  0  0  0  0
 19 18  1  0  0  0  0
 19 21  1  0  0  0  0
 20 19  2  0  0  0  0
 21 24  1  0  0  0  0
 22 21  1  0  0  0  0
 23 21  1  0  0  0  0
M  RAD  3   2   2   3   3   4   2
M  END
