Coordinates from ORCA-job 4-MeOPhN2+~CF3COO-_B3LYPG-6-31G_dp-CH-Scan-d09-49-n800
 OpenBabel11261919493D

 24 23  0  0  0  0  0  0  0  0999 V2000
   -1.5325    0.1143   -0.2763 C   0  0  0  0  0  0  0  0  0  0  0  0
   -2.9088    0.1164   -0.3606 N   0  0  0  0  0  0  0  0  0  0  0  0
   -4.0278    0.1758   -0.4225 N   0  0  0  0  0  0  0  0  0  0  0  0
   -0.9740    1.3959   -0.0557 C   0  0  0  0  0  0  0  0  0  0  0  0
    0.4290    1.2973    0.0171 C   0  0  0  0  0  0  0  0  0  0  0  0
    1.1450    0.0972   -0.1108 C   0  0  0  0  0  0  0  0  0  0  0  0
    2.4937    0.1886   -0.0113 O   0  0  0  0  0  0  0  0  0  0  0  0
    3.2917   -0.9837   -0.1221 C   0  0  0  0  0  0  0  0  0  0  0  0
    0.4777   -1.1427   -0.3331 C   0  0  0  0  0  0  0  0  0  0  0  0
   -0.8942   -1.1469   -0.4200 C   0  0  0  0  0  0  0  0  0  0  0  0
   -3.7779    4.5214    0.4903 H   0  0  0  0  0  0  0  0  0  0  0  0
    1.0363    2.1879    0.1844 H   0  0  0  0  0  0  0  0  0  0  0  0
    4.3246   -0.6530   -0.0043 H   0  0  0  0  0  0  0  0  0  0  0  0
    3.1768   -1.4601   -1.1037 H   0  0  0  0  0  0  0  0  0  0  0  0
    3.0539   -1.7099    0.6645 H   0  0  0  0  0  0  0  0  0  0  0  0
    1.0297   -2.0688   -0.4342 H   0  0  0  0  0  0  0  0  0  0  0  0
   -1.4488   -2.0667   -0.5901 H   0  0  0  0  0  0  0  0  0  0  0  0
   -4.6271    4.9697    0.6454 O   0  0  0  0  0  0  0  0  0  0  0  0
   -5.5991    4.0604    0.5240 C   0  0  0  0  0  0  0  0  0  0  0  0
   -5.4629    2.8923    0.2673 O   0  0  0  0  0  0  0  0  0  0  0  0
   -6.9719    4.7250    0.7652 C   0  0  0  0  0  0  0  0  0  0  0  0
   -7.1705    5.7200   -0.1169 F   0  0  0  0  0  0  0  0  0  0  0  0
   -7.9499    3.8276    0.6281 F   0  0  0  0  0  0  0  0  0  0  0  0
   -7.0277    5.2406    2.0056 F   0  0  0  0  0  0  0  0  0  0  0  0
  1  4  2  0  0  0  0
  2  1  1  0  0  0  0
  3  2  1  0  0  0  0
  4  5  1  0  0  0  0
  5 12  1  0  0  0  0
  6  7  1  0  0  0  0
  6  5  2  0  0  0  0
  8  7  1  0  0  0  0
  8 13  1  0  0  0  0
  8 15  1  0  0  0  0
  9  6  1  0  0  0  0
 10  9  2  0  0  0  0
 10  1  1  0  0  0  0
 11 18  1  0  0  0  0
 14  8  1  0  0  0  0
 16  9  1  0  0  0  0
 17 10  1  0  0  0  0
 19 18  1  0  0  0  0
 19 21  1  0  0  0  0
 20 19  2  0  0  0  0
 21 24  1  0  0  0  0
 22 21  1  0  0  0  0
 23 21  1  0  0  0  0
M  RAD  3   2   2   3   3   4   2
M  END
