Coordinates from ORCA-job 4-MeOPhN2+~CF3COO-_B3LYPG-6-31G_dp-CH-Scan-d09-49-n800
 OpenBabel11261919493D

 24 23  0  0  0  0  0  0  0  0999 V2000
   -2.0561    0.0379   -0.2044 C   0  0  0  0  0  0  0  0  0  0  0  0
   -3.4082   -0.1963   -0.2940 N   0  0  0  0  0  0  0  0  0  0  0  0
   -4.5171   -0.3405   -0.3571 N   0  0  0  0  0  0  0  0  0  0  0  0
   -1.6841    1.3738    0.0846 C   0  0  0  0  0  0  0  0  0  0  0  0
   -0.2916    1.5074    0.1585 C   0  0  0  0  0  0  0  0  0  0  0  0
    0.6080    0.4437   -0.0303 C   0  0  0  0  0  0  0  0  0  0  0  0
    1.9190    0.7473    0.0801 O   0  0  0  0  0  0  0  0  0  0  0  0
    2.8993   -0.2729   -0.0860 C   0  0  0  0  0  0  0  0  0  0  0  0
    0.1422   -0.8687   -0.3192 C   0  0  0  0  0  0  0  0  0  0  0  0
   -1.2132   -1.0847   -0.4097 C   0  0  0  0  0  0  0  0  0  0  0  0
   -3.0410    2.9668    0.3671 H   0  0  0  0  0  0  0  0  0  0  0  0
    0.1583    2.4749    0.3757 H   0  0  0  0  0  0  0  0  0  0  0  0
    3.8629    0.2165    0.0580 H   0  0  0  0  0  0  0  0  0  0  0  0
    2.8618   -0.7063   -1.0923 H   0  0  0  0  0  0  0  0  0  0  0  0
    2.7822   -1.0675    0.6603 H   0  0  0  0  0  0  0  0  0  0  0  0
    0.8298   -1.6913   -0.4675 H   0  0  0  0  0  0  0  0  0  0  0  0
   -1.6136   -2.0706   -0.6293 H   0  0  0  0  0  0  0  0  0  0  0  0
   -3.6518    3.7537    0.5061 O   0  0  0  0  0  0  0  0  0  0  0  0
   -4.9089    3.3713    0.4383 C   0  0  0  0  0  0  0  0  0  0  0  0
   -5.3432    2.2566    0.2413 O   0  0  0  0  0  0  0  0  0  0  0  0
   -5.8496    4.5813    0.6423 C   0  0  0  0  0  0  0  0  0  0  0  0
   -5.6735    5.4832   -0.3431 F   0  0  0  0  0  0  0  0  0  0  0  0
   -7.1292    4.1926    0.6346 F   0  0  0  0  0  0  0  0  0  0  0  0
   -5.5971    5.1906    1.8161 F   0  0  0  0  0  0  0  0  0  0  0  0
  1  4  2  0  0  0  0
  2  1  1  0  0  0  0
  3  2  1  0  0  0  0
  4  5  1  0  0  0  0
  5 12  1  0  0  0  0
  6  7  1  0  0  0  0
  6  5  2  0  0  0  0
  8 13  1  0  0  0  0
  8  7  1  0  0  0  0
  8 15  1  0  0  0  0
  9  6  1  0  0  0  0
 10  9  2  0  0  0  0
 10  1  1  0  0  0  0
 11 18  1  0  0  0  0
 14  8  1  0  0  0  0
 16  9  1  0  0  0  0
 17 10  1  0  0  0  0
 19 18  1  0  0  0  0
 19 21  1  0  0  0  0
 20 19  2  0  0  0  0
 21 24  1  0  0  0  0
 22 21  1  0  0  0  0
 23 21  1  0  0  0  0
M  RAD  3   2   2   3   3   4   2
M  END
