Coordinates from ORCA-job 4-MeOPhN2+~CF3COO-_B3LYPG-6-31G_dp-CH-Scan-d09-49-n800
 OpenBabel11261919493D

 24 23  0  0  0  0  0  0  0  0999 V2000
   -1.9524    0.0411   -0.2026 C   0  0  0  0  0  0  0  0  0  0  0  0
   -3.3127   -0.1495   -0.2829 N   0  0  0  0  0  0  0  0  0  0  0  0
   -4.4262   -0.2621   -0.3394 N   0  0  0  0  0  0  0  0  0  0  0  0
   -1.5474    1.3683    0.0799 C   0  0  0  0  0  0  0  0  0  0  0  0
   -0.1495    1.4613    0.1457 C   0  0  0  0  0  0  0  0  0  0  0  0
    0.7182    0.3725   -0.0439 C   0  0  0  0  0  0  0  0  0  0  0  0
    2.0396    0.6382    0.0589 O   0  0  0  0  0  0  0  0  0  0  0  0
    2.9884   -0.4101   -0.1091 C   0  0  0  0  0  0  0  0  0  0  0  0
    0.2154   -0.9287   -0.3265 C   0  0  0  0  0  0  0  0  0  0  0  0
   -1.1455   -1.1083   -0.4095 C   0  0  0  0  0  0  0  0  0  0  0  0
   -3.1773    3.2641    0.4117 H   0  0  0  0  0  0  0  0  0  0  0  0
    0.3312    2.4158    0.3569 H   0  0  0  0  0  0  0  0  0  0  0  0
    3.9669    0.0509    0.0287 H   0  0  0  0  0  0  0  0  0  0  0  0
    2.9338   -0.8454   -1.1141 H   0  0  0  0  0  0  0  0  0  0  0  0
    2.8525   -1.1996    0.6395 H   0  0  0  0  0  0  0  0  0  0  0  0
    0.8802   -1.7698   -0.4755 H   0  0  0  0  0  0  0  0  0  0  0  0
   -1.5743   -2.0837   -0.6241 H   0  0  0  0  0  0  0  0  0  0  0  0
   -3.8278    3.9937    0.5394 O   0  0  0  0  0  0  0  0  0  0  0  0
   -5.0548    3.5042    0.4600 C   0  0  0  0  0  0  0  0  0  0  0  0
   -5.3823    2.3571    0.2638 O   0  0  0  0  0  0  0  0  0  0  0  0
   -6.0895    4.6359    0.6510 C   0  0  0  0  0  0  0  0  0  0  0  0
   -5.9625    5.5543   -0.3254 F   0  0  0  0  0  0  0  0  0  0  0  0
   -7.3322    4.1464    0.6146 F   0  0  0  0  0  0  0  0  0  0  0  0
   -5.9062    5.2518    1.8332 F   0  0  0  0  0  0  0  0  0  0  0  0
  1  4  2  0  0  0  0
  2  1  1  0  0  0  0
  3  2  1  0  0  0  0
  4  5  1  0  0  0  0
  5 12  1  0  0  0  0
  6  7  1  0  0  0  0
  6  5  2  0  0  0  0
  8 13  1  0  0  0  0
  8  7  1  0  0  0  0
  8 15  1  0  0  0  0
  9  6  1  0  0  0  0
 10  9  2  0  0  0  0
 10  1  1  0  0  0  0
 11 18  1  0  0  0  0
 14  8  1  0  0  0  0
 16  9  1  0  0  0  0
 17 10  1  0  0  0  0
 19 18  1  0  0  0  0
 19 21  1  0  0  0  0
 20 19  2  0  0  0  0
 21 24  1  0  0  0  0
 22 21  1  0  0  0  0
 23 21  1  0  0  0  0
M  RAD  3   2   2   3   3   4   2
M  END
