Coordinates from ORCA-job 4-MeOPhN2+~CF3COO-_B3LYPG-6-31G_dp-CH-Scan-d09-49-n800
 OpenBabel11261919493D

 24 23  0  0  0  0  0  0  0  0999 V2000
   -1.7779    0.0532   -0.1588 C   0  0  0  0  0  0  0  0  0  0  0  0
   -3.1493   -0.0644   -0.2109 N   0  0  0  0  0  0  0  0  0  0  0  0
   -4.2692   -0.1139   -0.2444 N   0  0  0  0  0  0  0  0  0  0  0  0
   -1.3120    1.3616    0.1160 C   0  0  0  0  0  0  0  0  0  0  0  0
    0.0932    1.3806    0.1491 C   0  0  0  0  0  0  0  0  0  0  0  0
    0.9017    0.2521   -0.0618 C   0  0  0  0  0  0  0  0  0  0  0  0
    2.2389    0.4517    0.0085 O   0  0  0  0  0  0  0  0  0  0  0  0
    3.1289   -0.6409   -0.1889 C   0  0  0  0  0  0  0  0  0  0  0  0
    0.3312   -1.0247   -0.3327 C   0  0  0  0  0  0  0  0  0  0  0  0
   -1.0380   -1.1383   -0.3846 C   0  0  0  0  0  0  0  0  0  0  0  0
   -3.4046    3.7779    0.5657 H   0  0  0  0  0  0  0  0  0  0  0  0
    0.6280    2.3094    0.3491 H   0  0  0  0  0  0  0  0  0  0  0  0
    4.1332   -0.2294   -0.0806 H   0  0  0  0  0  0  0  0  0  0  0  0
    3.0233   -1.0717   -1.1919 H   0  0  0  0  0  0  0  0  0  0  0  0
    2.9778   -1.4253    0.5625 H   0  0  0  0  0  0  0  0  0  0  0  0
    0.9521   -1.8963   -0.4963 H   0  0  0  0  0  0  0  0  0  0  0  0
   -1.5194   -2.0915   -0.5892 H   0  0  0  0  0  0  0  0  0  0  0  0
   -4.1448    4.4065    0.6525 O   0  0  0  0  0  0  0  0  0  0  0  0
   -5.2849    3.7391    0.4859 C   0  0  0  0  0  0  0  0  0  0  0  0
   -5.4130    2.5607    0.2664 O   0  0  0  0  0  0  0  0  0  0  0  0
   -6.4831    4.7043    0.6210 C   0  0  0  0  0  0  0  0  0  0  0  0
   -6.3801    5.7106   -0.2650 F   0  0  0  0  0  0  0  0  0  0  0  0
   -7.6289    4.0552    0.4008 F   0  0  0  0  0  0  0  0  0  0  0  0
   -6.5176    5.2320    1.8579 F   0  0  0  0  0  0  0  0  0  0  0  0
  1  4  2  0  0  0  0
  2  1  1  0  0  0  0
  3  2  1  0  0  0  0
  4  5  1  0  0  0  0
  5 12  1  0  0  0  0
  6  7  1  0  0  0  0
  6  5  2  0  0  0  0
  8 13  1  0  0  0  0
  8  7  1  0  0  0  0
  8 15  1  0  0  0  0
  9  6  1  0  0  0  0
 10  9  2  0  0  0  0
 10  1  1  0  0  0  0
 11 18  1  0  0  0  0
 14  8  1  0  0  0  0
 16  9  1  0  0  0  0
 17 10  1  0  0  0  0
 19 21  1  0  0  0  0
 19 18  1  0  0  0  0
 20 19  2  0  0  0  0
 21 24  1  0  0  0  0
 22 21  1  0  0  0  0
 23 21  1  0  0  0  0
M  RAD  3   2   2   3   3   4   2
M  END
