Coordinates from ORCA-job 4-MeOPhN2+~CF3COO-_B3LYPG-6-31G_dp-CH-Scan-d09-49-n800
 OpenBabel11261919493D

 24 23  0  0  0  0  0  0  0  0999 V2000
   -1.6032    0.0808   -0.1372 C   0  0  0  0  0  0  0  0  0  0  0  0
   -2.9810    0.0434   -0.1678 N   0  0  0  0  0  0  0  0  0  0  0  0
   -4.1028    0.0670   -0.1823 N   0  0  0  0  0  0  0  0  0  0  0  0
   -1.0708    1.3647    0.1305 C   0  0  0  0  0  0  0  0  0  0  0  0
    0.3359    1.3047    0.1418 C   0  0  0  0  0  0  0  0  0  0  0  0
    1.0794    0.1354   -0.0811 C   0  0  0  0  0  0  0  0  0  0  0  0
    2.4278    0.2624   -0.0326 O   0  0  0  0  0  0  0  0  0  0  0  0
    3.2534   -0.8757   -0.2472 C   0  0  0  0  0  0  0  0  0  0  0  0
    0.4381   -1.1104   -0.3426 C   0  0  0  0  0  0  0  0  0  0  0  0
   -0.9356   -1.1510   -0.3738 C   0  0  0  0  0  0  0  0  0  0  0  0
   -3.6656    4.2967    0.7160 H   0  0  0  0  0  0  0  0  0  0  0  0
    0.9244    2.2030    0.3332 H   0  0  0  0  0  0  0  0  0  0  0  0
    4.2806   -0.5191   -0.1595 H   0  0  0  0  0  0  0  0  0  0  0  0
    3.1052   -1.3002   -1.2478 H   0  0  0  0  0  0  0  0  0  0  0  0
    3.0760   -1.6520    0.5070 H   0  0  0  0  0  0  0  0  0  0  0  0
    1.0100   -2.0133   -0.5151 H   0  0  0  0  0  0  0  0  0  0  0  0
   -1.4709   -2.0770   -0.5702 H   0  0  0  0  0  0  0  0  0  0  0  0
   -4.4916    4.8085    0.7633 O   0  0  0  0  0  0  0  0  0  0  0  0
   -5.5068    3.9742    0.5237 C   0  0  0  0  0  0  0  0  0  0  0  0
   -5.4308    2.7960    0.2880 O   0  0  0  0  0  0  0  0  0  0  0  0
   -6.8458    4.7396    0.6006 C   0  0  0  0  0  0  0  0  0  0  0  0
   -6.8467    5.7767   -0.2545 F   0  0  0  0  0  0  0  0  0  0  0  0
   -7.8596    3.9282    0.2935 F   0  0  0  0  0  0  0  0  0  0  0  0
   -7.0342    5.2159    1.8444 F   0  0  0  0  0  0  0  0  0  0  0  0
  1  4  2  0  0  0  0
  2  1  1  0  0  0  0
  3  2  1  0  0  0  0
  4  5  1  0  0  0  0
  5 12  1  0  0  0  0
  6  7  1  0  0  0  0
  6  5  2  0  0  0  0
  8 13  1  0  0  0  0
  8  7  1  0  0  0  0
  8 15  1  0  0  0  0
  9  6  1  0  0  0  0
 10  9  2  0  0  0  0
 10  1  1  0  0  0  0
 11 18  1  0  0  0  0
 14  8  1  0  0  0  0
 16  9  1  0  0  0  0
 17 10  1  0  0  0  0
 19 21  1  0  0  0  0
 19 18  1  0  0  0  0
 20 19  2  0  0  0  0
 21 24  1  0  0  0  0
 22 21  1  0  0  0  0
 23 21  1  0  0  0  0
M  RAD  3   2   2   3   3   4   2
M  END
