Coordinates from ORCA-job 4-MeOPhN2+~CF3COO-_B3LYPG-6-31G_dp-CH-Scan-d09-49-n800
 OpenBabel11261919493D

 24 23  0  0  0  0  0  0  0  0999 V2000
   -1.9473    0.0413   -0.2024 C   0  0  0  0  0  0  0  0  0  0  0  0
   -3.3079   -0.1472   -0.2823 N   0  0  0  0  0  0  0  0  0  0  0  0
   -4.4217   -0.2580   -0.3384 N   0  0  0  0  0  0  0  0  0  0  0  0
   -1.5407    1.3680    0.0798 C   0  0  0  0  0  0  0  0  0  0  0  0
   -0.1425    1.4590    0.1452 C   0  0  0  0  0  0  0  0  0  0  0  0
    0.7236    0.3690   -0.0445 C   0  0  0  0  0  0  0  0  0  0  0  0
    2.0454    0.6328    0.0579 O   0  0  0  0  0  0  0  0  0  0  0  0
    2.9927   -0.4168   -0.1104 C   0  0  0  0  0  0  0  0  0  0  0  0
    0.2190   -0.9316   -0.3268 C   0  0  0  0  0  0  0  0  0  0  0  0
   -1.1422   -1.1095   -0.4094 C   0  0  0  0  0  0  0  0  0  0  0  0
   -3.1840    3.2785    0.4139 H   0  0  0  0  0  0  0  0  0  0  0  0
    0.3397    2.4129    0.3561 H   0  0  0  0  0  0  0  0  0  0  0  0
    3.9719    0.0429    0.0271 H   0  0  0  0  0  0  0  0  0  0  0  0
    2.9372   -0.8521   -1.1153 H   0  0  0  0  0  0  0  0  0  0  0  0
    2.8560   -1.2060    0.6384 H   0  0  0  0  0  0  0  0  0  0  0  0
    0.8826   -1.7737   -0.4759 H   0  0  0  0  0  0  0  0  0  0  0  0
   -1.5724   -2.0843   -0.6238 H   0  0  0  0  0  0  0  0  0  0  0  0
   -3.8368    4.0054    0.5411 O   0  0  0  0  0  0  0  0  0  0  0  0
   -5.0620    3.5108    0.4611 C   0  0  0  0  0  0  0  0  0  0  0  0
   -5.3844    2.3624    0.2650 O   0  0  0  0  0  0  0  0  0  0  0  0
   -6.1012    4.6385    0.6513 C   0  0  0  0  0  0  0  0  0  0  0  0
   -5.9763    5.5578   -0.3245 F   0  0  0  0  0  0  0  0  0  0  0  0
   -7.3418    4.1442    0.6132 F   0  0  0  0  0  0  0  0  0  0  0  0
   -5.9214    5.2544    1.8340 F   0  0  0  0  0  0  0  0  0  0  0  0
  1  4  2  0  0  0  0
  2  1  1  0  0  0  0
  3  2  1  0  0  0  0
  4  5  1  0  0  0  0
  5 12  1  0  0  0  0
  6  7  1  0  0  0  0
  6  5  2  0  0  0  0
  8 13  1  0  0  0  0
  8  7  1  0  0  0  0
  8 15  1  0  0  0  0
  9  6  1  0  0  0  0
 10  9  2  0  0  0  0
 10  1  1  0  0  0  0
 11 18  1  0  0  0  0
 14  8  1  0  0  0  0
 16  9  1  0  0  0  0
 17 10  1  0  0  0  0
 19 18  1  0  0  0  0
 19 21  1  0  0  0  0
 20 19  2  0  0  0  0
 21 24  1  0  0  0  0
 22 21  1  0  0  0  0
 23 21  1  0  0  0  0
M  RAD  3   2   2   3   3   4   2
M  END
