Coordinates from ORCA-job 4-MeOPhN2+~CF3COO-_B3LYPG-6-31G_dp-CH-Scan-d09-49-n800
 OpenBabel11261919493D

 24 23  0  0  0  0  0  0  0  0999 V2000
   -1.7234    0.0567   -0.1524 C   0  0  0  0  0  0  0  0  0  0  0  0
   -3.0972   -0.0378   -0.1977 N   0  0  0  0  0  0  0  0  0  0  0  0
   -4.2183   -0.0655   -0.2253 N   0  0  0  0  0  0  0  0  0  0  0  0
   -1.2394    1.3587    0.1214 C   0  0  0  0  0  0  0  0  0  0  0  0
    0.1669    1.3553    0.1478 C   0  0  0  0  0  0  0  0  0  0  0  0
    0.9574    0.2152   -0.0676 C   0  0  0  0  0  0  0  0  0  0  0  0
    2.2983    0.3945   -0.0035 O   0  0  0  0  0  0  0  0  0  0  0  0
    3.1705   -0.7110   -0.2066 C   0  0  0  0  0  0  0  0  0  0  0  0
    0.3670   -1.0532   -0.3369 C   0  0  0  0  0  0  0  0  0  0  0  0
   -1.0039   -1.1464   -0.3827 C   0  0  0  0  0  0  0  0  0  0  0  0
   -3.4845    3.9299    0.6104 H   0  0  0  0  0  0  0  0  0  0  0  0
    0.7172    2.2757    0.3460 H   0  0  0  0  0  0  0  0  0  0  0  0
    4.1815   -0.3149   -0.1039 H   0  0  0  0  0  0  0  0  0  0  0  0
    3.0529   -1.1398   -1.2093 H   0  0  0  0  0  0  0  0  0  0  0  0
    3.0121   -1.4938    0.5451 H   0  0  0  0  0  0  0  0  0  0  0  0
    0.9744   -1.9335   -0.5042 H   0  0  0  0  0  0  0  0  0  0  0  0
   -1.5006   -2.0921   -0.5859 H   0  0  0  0  0  0  0  0  0  0  0  0
   -4.2498    4.5272    0.6862 O   0  0  0  0  0  0  0  0  0  0  0  0
   -5.3583    3.8113    0.4969 C   0  0  0  0  0  0  0  0  0  0  0  0
   -5.4287    2.6299    0.2706 O   0  0  0  0  0  0  0  0  0  0  0  0
   -6.5986    4.7238    0.6161 C   0  0  0  0  0  0  0  0  0  0  0  0
   -6.5228    5.7389   -0.2624 F   0  0  0  0  0  0  0  0  0  0  0  0
   -7.7115    4.0281    0.3727 F   0  0  0  0  0  0  0  0  0  0  0  0
   -6.6756    5.2416    1.8552 F   0  0  0  0  0  0  0  0  0  0  0  0
  1  4  2  0  0  0  0
  2  1  1  0  0  0  0
  3  2  1  0  0  0  0
  4  5  1  0  0  0  0
  5 12  1  0  0  0  0
  6  7  1  0  0  0  0
  6  5  2  0  0  0  0
  8 13  1  0  0  0  0
  8  7  1  0  0  0  0
  8 15  1  0  0  0  0
  9  6  1  0  0  0  0
 10  9  2  0  0  0  0
 10  1  1  0  0  0  0
 11 18  1  0  0  0  0
 14  8  1  0  0  0  0
 16  9  1  0  0  0  0
 17 10  1  0  0  0  0
 19 21  1  0  0  0  0
 19 18  1  0  0  0  0
 20 19  2  0  0  0  0
 21 24  1  0  0  0  0
 22 21  1  0  0  0  0
 23 21  1  0  0  0  0
M  RAD  3   2   2   3   3   4   2
M  END
