Coordinates from ORCA-job 4-MeOPhN2+~CF3COO-_B3LYPG-6-31G_dp-CH-Scan-d09-49-n800
 OpenBabel11261919493D

 24 23  0  0  0  0  0  0  0  0999 V2000
   -1.9601    0.0410   -0.2028 C   0  0  0  0  0  0  0  0  0  0  0  0
   -3.3198   -0.1529   -0.2838 N   0  0  0  0  0  0  0  0  0  0  0  0
   -4.4329   -0.2682   -0.3408 N   0  0  0  0  0  0  0  0  0  0  0  0
   -1.5575    1.3688    0.0800 C   0  0  0  0  0  0  0  0  0  0  0  0
   -0.1599    1.4648    0.1465 C   0  0  0  0  0  0  0  0  0  0  0  0
    0.7101    0.3778   -0.0430 C   0  0  0  0  0  0  0  0  0  0  0  0
    2.0308    0.6462    0.0604 O   0  0  0  0  0  0  0  0  0  0  0  0
    2.9819   -0.4001   -0.1073 C   0  0  0  0  0  0  0  0  0  0  0  0
    0.2100   -0.9243   -0.3261 C   0  0  0  0  0  0  0  0  0  0  0  0
   -1.1505   -1.1066   -0.4096 C   0  0  0  0  0  0  0  0  0  0  0  0
   -3.1673    3.2425    0.4085 H   0  0  0  0  0  0  0  0  0  0  0  0
    0.3186    2.4203    0.3581 H   0  0  0  0  0  0  0  0  0  0  0  0
    3.9593    0.0630    0.0311 H   0  0  0  0  0  0  0  0  0  0  0  0
    2.9287   -0.8353   -1.1123 H   0  0  0  0  0  0  0  0  0  0  0  0
    2.8473   -1.1899    0.6412 H   0  0  0  0  0  0  0  0  0  0  0  0
    0.8765   -1.7641   -0.4750 H   0  0  0  0  0  0  0  0  0  0  0  0
   -1.5772   -2.0828   -0.6246 H   0  0  0  0  0  0  0  0  0  0  0  0
   -3.8145    3.9761    0.5370 O   0  0  0  0  0  0  0  0  0  0  0  0
   -5.0441    3.4943    0.4585 C   0  0  0  0  0  0  0  0  0  0  0  0
   -5.3794    2.3493    0.2621 O   0  0  0  0  0  0  0  0  0  0  0  0
   -6.0721    4.6321    0.6505 C   0  0  0  0  0  0  0  0  0  0  0  0
   -5.9416    5.5491   -0.3268 F   0  0  0  0  0  0  0  0  0  0  0  0
   -7.3177    4.1497    0.6165 F   0  0  0  0  0  0  0  0  0  0  0  0
   -5.8833    5.2479    1.8319 F   0  0  0  0  0  0  0  0  0  0  0  0
  1  4  2  0  0  0  0
  2  1  1  0  0  0  0
  3  2  1  0  0  0  0
  4  5  1  0  0  0  0
  5 12  1  0  0  0  0
  6  7  1  0  0  0  0
  6  5  2  0  0  0  0
  8 13  1  0  0  0  0
  8  7  1  0  0  0  0
  8 15  1  0  0  0  0
  9  6  1  0  0  0  0
 10  9  2  0  0  0  0
 10  1  1  0  0  0  0
 11 18  1  0  0  0  0
 14  8  1  0  0  0  0
 16  9  1  0  0  0  0
 17 10  1  0  0  0  0
 19 18  1  0  0  0  0
 19 21  1  0  0  0  0
 20 19  2  0  0  0  0
 21 24  1  0  0  0  0
 22 21  1  0  0  0  0
 23 21  1  0  0  0  0
M  RAD  3   2   2   3   3   4   2
M  END
