Coordinates from ORCA-job 4-MeOPhN2+~CF3COO-_B3LYPG-6-31G_dp-CH-Scan-d09-49-n800
 OpenBabel11261919493D

 24 23  0  0  0  0  0  0  0  0999 V2000
   -1.4068    0.1611   -0.2594 C   0  0  0  0  0  0  0  0  0  0  0  0
   -2.7827    0.2294   -0.3280 N   0  0  0  0  0  0  0  0  0  0  0  0
   -3.8980    0.3460   -0.3762 N   0  0  0  0  0  0  0  0  0  0  0  0
   -0.7887    1.4181   -0.0596 C   0  0  0  0  0  0  0  0  0  0  0  0
    0.6094    1.2559   -0.0024 C   0  0  0  0  0  0  0  0  0  0  0  0
    1.2678    0.0232   -0.1274 C   0  0  0  0  0  0  0  0  0  0  0  0
    2.6209    0.0539   -0.0476 O   0  0  0  0  0  0  0  0  0  0  0  0
    3.3635   -1.1537   -0.1631 C   0  0  0  0  0  0  0  0  0  0  0  0
    0.5417   -1.1874   -0.3269 C   0  0  0  0  0  0  0  0  0  0  0  0
   -0.8300   -1.1300   -0.3965 C   0  0  0  0  0  0  0  0  0  0  0  0
   -3.9934    4.8342    0.5598 H   0  0  0  0  0  0  0  0  0  0  0  0
    1.2589    2.1194    0.1482 H   0  0  0  0  0  0  0  0  0  0  0  0
    4.4121   -0.8689   -0.0662 H   0  0  0  0  0  0  0  0  0  0  0  0
    3.2098   -1.6317   -1.1387 H   0  0  0  0  0  0  0  0  0  0  0  0
    3.1080   -1.8631    0.6335 H   0  0  0  0  0  0  0  0  0  0  0  0
    1.0497   -2.1388   -0.4239 H   0  0  0  0  0  0  0  0  0  0  0  0
   -1.4284   -2.0253   -0.5482 H   0  0  0  0  0  0  0  0  0  0  0  0
   -4.8845    5.2004    0.6945 O   0  0  0  0  0  0  0  0  0  0  0  0
   -5.7611    4.2006    0.5495 C   0  0  0  0  0  0  0  0  0  0  0  0
   -5.5033    3.0523    0.2984 O   0  0  0  0  0  0  0  0  0  0  0  0
   -7.1974    4.7283    0.7550 C   0  0  0  0  0  0  0  0  0  0  0  0
   -7.4684    5.7020   -0.1310 F   0  0  0  0  0  0  0  0  0  0  0  0
   -8.0794    3.7405    0.5923 F   0  0  0  0  0  0  0  0  0  0  0  0
   -7.3342    5.2320    1.9942 F   0  0  0  0  0  0  0  0  0  0  0  0
  1  4  2  0  0  0  0
  2  1  1  0  0  0  0
  3  2  1  0  0  0  0
  4  5  1  0  0  0  0
  5 12  1  0  0  0  0
  6  7  1  0  0  0  0
  6  5  2  0  0  0  0
  8 13  1  0  0  0  0
  8  7  1  0  0  0  0
  8 15  1  0  0  0  0
  9  6  1  0  0  0  0
 10  9  2  0  0  0  0
 10  1  1  0  0  0  0
 11 18  1  0  0  0  0
 14  8  1  0  0  0  0
 16  9  1  0  0  0  0
 17 10  1  0  0  0  0
 19 18  1  0  0  0  0
 19 21  1  0  0  0  0
 20 19  2  0  0  0  0
 21 24  1  0  0  0  0
 22 21  1  0  0  0  0
 23 21  1  0  0  0  0
M  RAD  3   2   2   3   3   4   2
M  END
