Coordinates from ORCA-job 4-MeOPhN2+~CF3COO-_B3LYPG-6-31G_dp-CH-Scan-d09-49-n800
 OpenBabel11261919493D

 24 23  0  0  0  0  0  0  0  0999 V2000
   -2.1799    0.0513   -0.2212 C   0  0  0  0  0  0  0  0  0  0  0  0
   -3.5259   -0.2116   -0.3235 N   0  0  0  0  0  0  0  0  0  0  0  0
   -4.6369   -0.3290   -0.3847 N   0  0  0  0  0  0  0  0  0  0  0  0
   -1.8248    1.3913    0.0587 C   0  0  0  0  0  0  0  0  0  0  0  0
   -0.4466    1.5761    0.1508 C   0  0  0  0  0  0  0  0  0  0  0  0
    0.4829    0.5322   -0.0183 C   0  0  0  0  0  0  0  0  0  0  0  0
    1.7799    0.8726    0.1037 O   0  0  0  0  0  0  0  0  0  0  0  0
    2.7920   -0.1215   -0.0438 C   0  0  0  0  0  0  0  0  0  0  0  0
    0.0501   -0.7903   -0.2998 C   0  0  0  0  0  0  0  0  0  0  0  0
   -1.3001   -1.0413   -0.4042 C   0  0  0  0  0  0  0  0  0  0  0  0
   -2.8090    2.5413    0.2510 H   0  0  0  0  0  0  0  0  0  0  0  0
   -0.0383    2.5612    0.3645 H   0  0  0  0  0  0  0  0  0  0  0  0
    3.7386    0.3977    0.1050 H   0  0  0  0  0  0  0  0  0  0  0  0
    2.7748   -0.5632   -1.0466 H   0  0  0  0  0  0  0  0  0  0  0  0
    2.6887   -0.9111    0.7094 H   0  0  0  0  0  0  0  0  0  0  0  0
    0.7579   -1.5980   -0.4328 H   0  0  0  0  0  0  0  0  0  0  0  0
   -1.6720   -2.0388   -0.6187 H   0  0  0  0  0  0  0  0  0  0  0  0
   -3.4632    3.4739    0.4131 O   0  0  0  0  0  0  0  0  0  0  0  0
   -4.7279    3.2102    0.4107 C   0  0  0  0  0  0  0  0  0  0  0  0
   -5.2934    2.1355    0.2477 O   0  0  0  0  0  0  0  0  0  0  0  0
   -5.5732    4.4875    0.6479 C   0  0  0  0  0  0  0  0  0  0  0  0
   -5.3668    5.3840   -0.3404 F   0  0  0  0  0  0  0  0  0  0  0  0
   -6.8847    4.2116    0.6878 F   0  0  0  0  0  0  0  0  0  0  0  0
   -5.2366    5.0769    1.8141 F   0  0  0  0  0  0  0  0  0  0  0  0
  1  4  2  0  0  0  0
  2  1  1  0  0  0  0
  3  2  1  0  0  0  0
  4  5  1  0  0  0  0
  5 12  1  0  0  0  0
  6  7  1  0  0  0  0
  6  5  2  0  0  0  0
  8  7  1  0  0  0  0
  8 13  1  0  0  0  0
  8 15  1  0  0  0  0
  9  6  1  0  0  0  0
 10  9  2  0  0  0  0
 10  1  1  0  0  0  0
 11 18  1  0  0  0  0
 14  8  1  0  0  0  0
 16  9  1  0  0  0  0
 17 10  1  0  0  0  0
 19 18  1  0  0  0  0
 19 21  1  0  0  0  0
 20 19  2  0  0  0  0
 21 23  1  0  0  0  0
 21 24  1  0  0  0  0
 22 21  1  0  0  0  0
M  RAD  3   2   2   3   3   4   2
M  END
