Coordinates from ORCA-job 4-MeOPhN2+~CF3COO-_B3LYPG-6-31G_dp-CH-Scan-d09-49-n800
 OpenBabel11261919493D

 24 23  0  0  0  0  0  0  0  0999 V2000
   -1.6666    0.0638   -0.1460 C   0  0  0  0  0  0  0  0  0  0  0  0
   -3.0426   -0.0054   -0.1844 N   0  0  0  0  0  0  0  0  0  0  0  0
   -4.1643   -0.0095   -0.2055 N   0  0  0  0  0  0  0  0  0  0  0  0
   -1.1619    1.3581    0.1257 C   0  0  0  0  0  0  0  0  0  0  0  0
    0.2450    1.3300    0.1453 C   0  0  0  0  0  0  0  0  0  0  0  0
    1.0152    0.1771   -0.0739 C   0  0  0  0  0  0  0  0  0  0  0  0
    2.3597    0.3336   -0.0165 O   0  0  0  0  0  0  0  0  0  0  0  0
    3.2117   -0.7862   -0.2248 C   0  0  0  0  0  0  0  0  0  0  0  0
    0.4027   -1.0816   -0.3405 C   0  0  0  0  0  0  0  0  0  0  0  0
   -0.9697   -1.1521   -0.3799 C   0  0  0  0  0  0  0  0  0  0  0  0
   -3.5692    4.0951    0.6570 H   0  0  0  0  0  0  0  0  0  0  0  0
    0.8121    2.2409    0.3409 H   0  0  0  0  0  0  0  0  0  0  0  0
    4.2301   -0.4073   -0.1284 H   0  0  0  0  0  0  0  0  0  0  0  0
    3.0809   -1.2131   -1.2268 H   0  0  0  0  0  0  0  0  0  0  0  0
    3.0450   -1.5664    0.5277 H   0  0  0  0  0  0  0  0  0  0  0  0
    0.9948   -1.9718   -0.5106 H   0  0  0  0  0  0  0  0  0  0  0  0
   -1.4833   -2.0893   -0.5807 H   0  0  0  0  0  0  0  0  0  0  0  0
   -4.3617    4.6563    0.7204 O   0  0  0  0  0  0  0  0  0  0  0  0
   -5.4319    3.8877    0.5088 C   0  0  0  0  0  0  0  0  0  0  0  0
   -5.4386    2.7058    0.2774 O   0  0  0  0  0  0  0  0  0  0  0  0
   -6.7169    4.7382    0.6106 C   0  0  0  0  0  0  0  0  0  0  0  0
   -6.6739    5.7633   -0.2582 F   0  0  0  0  0  0  0  0  0  0  0  0
   -7.7892    3.9909    0.3405 F   0  0  0  0  0  0  0  0  0  0  0  0
   -6.8418    5.2406    1.8521 F   0  0  0  0  0  0  0  0  0  0  0  0
  1  4  2  0  0  0  0
  2  1  1  0  0  0  0
  3  2  1  0  0  0  0
  4  5  1  0  0  0  0
  5 12  1  0  0  0  0
  6  7  1  0  0  0  0
  6  5  2  0  0  0  0
  8 13  1  0  0  0  0
  8  7  1  0  0  0  0
  8 15  1  0  0  0  0
  9  6  1  0  0  0  0
 10  9  2  0  0  0  0
 10  1  1  0  0  0  0
 11 18  1  0  0  0  0
 14  8  1  0  0  0  0
 16  9  1  0  0  0  0
 17 10  1  0  0  0  0
 19 21  1  0  0  0  0
 19 18  1  0  0  0  0
 20 19  2  0  0  0  0
 21 24  1  0  0  0  0
 22 21  1  0  0  0  0
 23 21  1  0  0  0  0
M  RAD  3   2   2   3   3   4   2
M  END
