Coordinates from ORCA-job 4-MeOPhN2+~CF3COO-_B3LYPG-6-31G_dp-CH-Scan-d09-49-n800
 OpenBabel11261919493D

 24 23  0  0  0  0  0  0  0  0999 V2000
   -1.8412    0.0483   -0.1718 C   0  0  0  0  0  0  0  0  0  0  0  0
   -3.2089   -0.0959   -0.2338 N   0  0  0  0  0  0  0  0  0  0  0  0
   -4.3270   -0.1687   -0.2760 N   0  0  0  0  0  0  0  0  0  0  0  0
   -1.3973    1.3644    0.1037 C   0  0  0  0  0  0  0  0  0  0  0  0
    0.0059    1.4104    0.1473 C   0  0  0  0  0  0  0  0  0  0  0  0
    0.8360    0.2958   -0.0555 C   0  0  0  0  0  0  0  0  0  0  0  0
    2.1681    0.5197    0.0245 O   0  0  0  0  0  0  0  0  0  0  0  0
    3.0796   -0.5573   -0.1630 C   0  0  0  0  0  0  0  0  0  0  0  0
    0.2898   -0.9908   -0.3281 C   0  0  0  0  0  0  0  0  0  0  0  0
   -1.0768   -1.1287   -0.3897 C   0  0  0  0  0  0  0  0  0  0  0  0
   -3.3191    3.5897    0.5050 H   0  0  0  0  0  0  0  0  0  0  0  0
    0.5216    2.3492    0.3496 H   0  0  0  0  0  0  0  0  0  0  0  0
    4.0751   -0.1274   -0.0463 H   0  0  0  0  0  0  0  0  0  0  0  0
    2.9906   -0.9912   -1.1662 H   0  0  0  0  0  0  0  0  0  0  0  0
    2.9355   -1.3428    0.5886 H   0  0  0  0  0  0  0  0  0  0  0  0
    0.9268   -1.8518   -0.4857 H   0  0  0  0  0  0  0  0  0  0  0  0
   -1.5394   -2.0907   -0.5960 H   0  0  0  0  0  0  0  0  0  0  0  0
   -4.0261    4.2569    0.6056 O   0  0  0  0  0  0  0  0  0  0  0  0
   -5.2027    3.6527    0.4752 C   0  0  0  0  0  0  0  0  0  0  0  0
   -5.4048    2.4812    0.2698 O   0  0  0  0  0  0  0  0  0  0  0  0
   -6.3434    4.6827    0.6313 C   0  0  0  0  0  0  0  0  0  0  0  0
   -6.2144    5.6699   -0.2731 F   0  0  0  0  0  0  0  0  0  0  0  0
   -7.5290    4.0935    0.4547 F   0  0  0  0  0  0  0  0  0  0  0  0
   -6.3135    5.2294    1.8601 F   0  0  0  0  0  0  0  0  0  0  0  0
  1  4  2  0  0  0  0
  2  1  1  0  0  0  0
  3  2  1  0  0  0  0
  4  5  1  0  0  0  0
  5 12  1  0  0  0  0
  6  7  1  0  0  0  0
  6  5  2  0  0  0  0
  8 13  1  0  0  0  0
  8  7  1  0  0  0  0
  8 15  1  0  0  0  0
  9  6  1  0  0  0  0
 10  9  2  0  0  0  0
 10  1  1  0  0  0  0
 11 18  1  0  0  0  0
 14  8  1  0  0  0  0
 16  9  1  0  0  0  0
 17 10  1  0  0  0  0
 19 18  1  0  0  0  0
 19 21  1  0  0  0  0
 20 19  2  0  0  0  0
 21 24  1  0  0  0  0
 22 21  1  0  0  0  0
 23 21  1  0  0  0  0
M  RAD  3   2   2   3   3   4   2
M  END
