Coordinates from ORCA-job 4-MeOPhN2+~CF3COO-_B3LYPG-6-31G_dp-CH-Scan-d09-49-n800
 OpenBabel11261919493D

 24 23  0  0  0  0  0  0  0  0999 V2000
   -1.7185    0.0572   -0.1518 C   0  0  0  0  0  0  0  0  0  0  0  0
   -3.0925   -0.0351   -0.1966 N   0  0  0  0  0  0  0  0  0  0  0  0
   -4.2136   -0.0608   -0.2235 N   0  0  0  0  0  0  0  0  0  0  0  0
   -1.2328    1.3586    0.1218 C   0  0  0  0  0  0  0  0  0  0  0  0
    0.1736    1.3530    0.1476 C   0  0  0  0  0  0  0  0  0  0  0  0
    0.9624    0.2119   -0.0681 C   0  0  0  0  0  0  0  0  0  0  0  0
    2.3037    0.3893   -0.0046 O   0  0  0  0  0  0  0  0  0  0  0  0
    3.1741   -0.7175   -0.2081 C   0  0  0  0  0  0  0  0  0  0  0  0
    0.3702   -1.0557   -0.3373 C   0  0  0  0  0  0  0  0  0  0  0  0
   -1.0009   -1.1470   -0.3826 C   0  0  0  0  0  0  0  0  0  0  0  0
   -3.4918    3.9437    0.6143 H   0  0  0  0  0  0  0  0  0  0  0  0
    0.7253    2.2726    0.3456 H   0  0  0  0  0  0  0  0  0  0  0  0
    4.1858   -0.3228   -0.1059 H   0  0  0  0  0  0  0  0  0  0  0  0
    3.0554   -1.1461   -1.2107 H   0  0  0  0  0  0  0  0  0  0  0  0
    3.0150   -1.5000    0.5437 H   0  0  0  0  0  0  0  0  0  0  0  0
    0.9763   -1.9368   -0.5048 H   0  0  0  0  0  0  0  0  0  0  0  0
   -1.4990   -2.0920   -0.5856 H   0  0  0  0  0  0  0  0  0  0  0  0
   -4.2594    4.5381    0.6890 O   0  0  0  0  0  0  0  0  0  0  0  0
   -5.3649    3.8178    0.4978 C   0  0  0  0  0  0  0  0  0  0  0  0
   -5.4301    2.6362    0.2711 O   0  0  0  0  0  0  0  0  0  0  0  0
   -6.6089    4.7253    0.6157 C   0  0  0  0  0  0  0  0  0  0  0  0
   -6.5358    5.7412   -0.2621 F   0  0  0  0  0  0  0  0  0  0  0  0
   -7.7186    4.0253    0.3703 F   0  0  0  0  0  0  0  0  0  0  0  0
   -6.6897    5.2421    1.8550 F   0  0  0  0  0  0  0  0  0  0  0  0
  1  4  2  0  0  0  0
  2  1  1  0  0  0  0
  3  2  1  0  0  0  0
  4  5  1  0  0  0  0
  5 12  1  0  0  0  0
  6  7  1  0  0  0  0
  6  5  2  0  0  0  0
  8 13  1  0  0  0  0
  8  7  1  0  0  0  0
  8 15  1  0  0  0  0
  9  6  1  0  0  0  0
 10  9  2  0  0  0  0
 10  1  1  0  0  0  0
 11 18  1  0  0  0  0
 14  8  1  0  0  0  0
 16  9  1  0  0  0  0
 17 10  1  0  0  0  0
 19 21  1  0  0  0  0
 19 18  1  0  0  0  0
 20 19  2  0  0  0  0
 21 24  1  0  0  0  0
 22 21  1  0  0  0  0
 23 21  1  0  0  0  0
M  RAD  3   2   2   3   3   4   2
M  END
