Coordinates from ORCA-job 4-MeOPhN2+~CF3COO-_B3LYPG-6-31G_dp-CH-Scan-d09-49-n800
 OpenBabel11261919493D

 24 23  0  0  0  0  0  0  0  0999 V2000
   -1.6855    0.0600   -0.1476 C   0  0  0  0  0  0  0  0  0  0  0  0
   -3.0607   -0.0185   -0.1880 N   0  0  0  0  0  0  0  0  0  0  0  0
   -4.1822   -0.0298   -0.2133 N   0  0  0  0  0  0  0  0  0  0  0  0
   -1.1884    1.3574    0.1247 C   0  0  0  0  0  0  0  0  0  0  0  0
    0.2184    1.3380    0.1462 C   0  0  0  0  0  0  0  0  0  0  0  0
    0.9959    0.1897   -0.0719 C   0  0  0  0  0  0  0  0  0  0  0  0
    2.3393    0.3544   -0.0125 O   0  0  0  0  0  0  0  0  0  0  0  0
    3.1985   -0.7603   -0.2191 C   0  0  0  0  0  0  0  0  0  0  0  0
    0.3914   -1.0726   -0.3393 C   0  0  0  0  0  0  0  0  0  0  0  0
   -0.9805   -1.1514   -0.3805 C   0  0  0  0  0  0  0  0  0  0  0  0
   -3.5410    4.0372    0.6423 H   0  0  0  0  0  0  0  0  0  0  0  0
    0.7796    2.2523    0.3427 H   0  0  0  0  0  0  0  0  0  0  0  0
    4.2143   -0.3751   -0.1208 H   0  0  0  0  0  0  0  0  0  0  0  0
    3.0721   -1.1879   -1.2213 H   0  0  0  0  0  0  0  0  0  0  0  0
    3.0350   -1.5414    0.5332 H   0  0  0  0  0  0  0  0  0  0  0  0
    0.9891   -1.9592   -0.5085 H   0  0  0  0  0  0  0  0  0  0  0  0
   -1.4880   -2.0917   -0.5820 H   0  0  0  0  0  0  0  0  0  0  0  0
   -4.3241    4.6116    0.7102 O   0  0  0  0  0  0  0  0  0  0  0  0
   -5.4086    3.8623    0.5050 C   0  0  0  0  0  0  0  0  0  0  0  0
   -5.4378    2.6805    0.2746 O   0  0  0  0  0  0  0  0  0  0  0  0
   -6.6779    4.7355    0.6123 C   0  0  0  0  0  0  0  0  0  0  0  0
   -6.6219    5.7574   -0.2596 F   0  0  0  0  0  0  0  0  0  0  0  0
   -7.7650    4.0069    0.3505 F   0  0  0  0  0  0  0  0  0  0  0  0
   -6.7866    5.2434    1.8531 F   0  0  0  0  0  0  0  0  0  0  0  0
  1  4  2  0  0  0  0
  2  1  1  0  0  0  0
  3  2  1  0  0  0  0
  4  5  1  0  0  0  0
  5 12  1  0  0  0  0
  6  7  1  0  0  0  0
  6  5  2  0  0  0  0
  8 13  1  0  0  0  0
  8  7  1  0  0  0  0
  8 15  1  0  0  0  0
  9  6  1  0  0  0  0
 10  9  2  0  0  0  0
 10  1  1  0  0  0  0
 11 18  1  0  0  0  0
 14  8  1  0  0  0  0
 16  9  1  0  0  0  0
 17 10  1  0  0  0  0
 19 21  1  0  0  0  0
 19 18  1  0  0  0  0
 20 19  2  0  0  0  0
 21 24  1  0  0  0  0
 22 21  1  0  0  0  0
 23 21  1  0  0  0  0
M  RAD  3   2   2   3   3   4   2
M  END
