Coordinates from ORCA-job 4-MeOPhN2+~CF3COO-_B3LYPG-6-31G_dp-CH-Scan-d09-49-n800
 OpenBabel11261919493D

 24 23  0  0  0  0  0  0  0  0999 V2000
   -1.4976    0.1233   -0.2722 C   0  0  0  0  0  0  0  0  0  0  0  0
   -2.8741    0.1422   -0.3519 N   0  0  0  0  0  0  0  0  0  0  0  0
   -3.9926    0.2164   -0.4092 N   0  0  0  0  0  0  0  0  0  0  0  0
   -0.9240    1.3993   -0.0588 C   0  0  0  0  0  0  0  0  0  0  0  0
    0.4781    1.2848    0.0095 C   0  0  0  0  0  0  0  0  0  0  0  0
    1.1797    0.0761   -0.1165 C   0  0  0  0  0  0  0  0  0  0  0  0
    2.5299    0.1524   -0.0227 O   0  0  0  0  0  0  0  0  0  0  0  0
    3.3141   -1.0291   -0.1337 C   0  0  0  0  0  0  0  0  0  0  0  0
    0.4975   -1.1571   -0.3311 C   0  0  0  0  0  0  0  0  0  0  0  0
   -0.8748   -1.1460   -0.4129 C   0  0  0  0  0  0  0  0  0  0  0  0
   -3.8371    4.6050    0.5142 H   0  0  0  0  0  0  0  0  0  0  0  0
    1.0963    2.1690    0.1713 H   0  0  0  0  0  0  0  0  0  0  0  0
    4.3512   -0.7097   -0.0222 H   0  0  0  0  0  0  0  0  0  0  0  0
    3.1889   -1.5075   -1.1131 H   0  0  0  0  0  0  0  0  0  0  0  0
    3.0723   -1.7501    0.6566 H   0  0  0  0  0  0  0  0  0  0  0  0
    1.0385   -2.0898   -0.4302 H   0  0  0  0  0  0  0  0  0  0  0  0
   -1.4406   -2.0601   -0.5770 H   0  0  0  0  0  0  0  0  0  0  0  0
   -4.6978    5.0333    0.6625 O   0  0  0  0  0  0  0  0  0  0  0  0
   -5.6467    4.1006    0.5323 C   0  0  0  0  0  0  0  0  0  0  0  0
   -5.4791    2.9364    0.2767 O   0  0  0  0  0  0  0  0  0  0  0  0
   -7.0371    4.7316    0.7619 C   0  0  0  0  0  0  0  0  0  0  0  0
   -7.2502    5.7255   -0.1180 F   0  0  0  0  0  0  0  0  0  0  0  0
   -7.9921    3.8119    0.6111 F   0  0  0  0  0  0  0  0  0  0  0  0
   -7.1174    5.2401    2.0039 F   0  0  0  0  0  0  0  0  0  0  0  0
  1  4  2  0  0  0  0
  2  1  1  0  0  0  0
  3  2  1  0  0  0  0
  4  5  1  0  0  0  0
  5 12  1  0  0  0  0
  6  7  1  0  0  0  0
  6  5  2  0  0  0  0
  8  7  1  0  0  0  0
  8 13  1  0  0  0  0
  8 15  1  0  0  0  0
  9  6  1  0  0  0  0
 10  9  2  0  0  0  0
 10  1  1  0  0  0  0
 11 18  1  0  0  0  0
 14  8  1  0  0  0  0
 16  9  1  0  0  0  0
 17 10  1  0  0  0  0
 19 18  1  0  0  0  0
 19 21  1  0  0  0  0
 20 19  2  0  0  0  0
 21 24  1  0  0  0  0
 22 21  1  0  0  0  0
 23 21  1  0  0  0  0
M  RAD  3   2   2   3   3   4   2
M  END
