Coordinates from ORCA-job 4-MeOPhN2+~CF3COO-_B3LYPG-6-31G_dp-CH-Scan-d09-49-n800
 OpenBabel11261919493D

 24 23  0  0  0  0  0  0  0  0999 V2000
   -2.1343    0.0406   -0.2149 C   0  0  0  0  0  0  0  0  0  0  0  0
   -3.4802   -0.2223   -0.3141 N   0  0  0  0  0  0  0  0  0  0  0  0
   -4.5860   -0.3814   -0.3827 N   0  0  0  0  0  0  0  0  0  0  0  0
   -1.7823    1.3825    0.0700 C   0  0  0  0  0  0  0  0  0  0  0  0
   -0.3961    1.5462    0.1543 C   0  0  0  0  0  0  0  0  0  0  0  0
    0.5254    0.4984   -0.0230 C   0  0  0  0  0  0  0  0  0  0  0  0
    1.8277    0.8284    0.0951 O   0  0  0  0  0  0  0  0  0  0  0  0
    2.8301   -0.1731   -0.0596 C   0  0  0  0  0  0  0  0  0  0  0  0
    0.0851   -0.8222   -0.3087 C   0  0  0  0  0  0  0  0  0  0  0  0
   -1.2660   -1.0631   -0.4079 C   0  0  0  0  0  0  0  0  0  0  0  0
   -2.9233    2.7367    0.3037 H   0  0  0  0  0  0  0  0  0  0  0  0
    0.0293    2.5245    0.3704 H   0  0  0  0  0  0  0  0  0  0  0  0
    3.7822    0.3369    0.0879 H   0  0  0  0  0  0  0  0  0  0  0  0
    2.8069   -0.6115   -1.0640 H   0  0  0  0  0  0  0  0  0  0  0  0
    2.7236   -0.9656    0.6903 H   0  0  0  0  0  0  0  0  0  0  0  0
    0.7879   -1.6334   -0.4483 H   0  0  0  0  0  0  0  0  0  0  0  0
   -1.6463   -2.0572   -0.6254 H   0  0  0  0  0  0  0  0  0  0  0  0
   -3.5259    3.5820    0.4531 O   0  0  0  0  0  0  0  0  0  0  0  0
   -4.7946    3.2731    0.4239 C   0  0  0  0  0  0  0  0  0  0  0  0
   -5.3060    2.1827    0.2473 O   0  0  0  0  0  0  0  0  0  0  0  0
   -5.6694    4.5301    0.6457 C   0  0  0  0  0  0  0  0  0  0  0  0
   -5.4684    5.4254   -0.3425 F   0  0  0  0  0  0  0  0  0  0  0  0
   -6.9702    4.2139    0.6651 F   0  0  0  0  0  0  0  0  0  0  0  0
   -5.3635    5.1268    1.8146 F   0  0  0  0  0  0  0  0  0  0  0  0
  1  4  2  0  0  0  0
  2  1  1  0  0  0  0
  3  2  1  0  0  0  0
  4  5  1  0  0  0  0
  5 12  1  0  0  0  0
  6  7  1  0  0  0  0
  6  5  2  0  0  0  0
  8 13  1  0  0  0  0
  8  7  1  0  0  0  0
  8 15  1  0  0  0  0
  9  6  1  0  0  0  0
 10  9  2  0  0  0  0
 10  1  1  0  0  0  0
 11 18  1  0  0  0  0
 14  8  1  0  0  0  0
 16  9  1  0  0  0  0
 17 10  1  0  0  0  0
 19 18  1  0  0  0  0
 19 21  1  0  0  0  0
 20 19  2  0  0  0  0
 21 23  1  0  0  0  0
 21 24  1  0  0  0  0
 22 21  1  0  0  0  0
M  RAD  3   2   2   3   3   4   2
M  END
