Coordinates from ORCA-job 4-MeOPhN2+~CF3COO-_B3LYPG-6-31G_dp-CH-Scan-d09-49-n800
 OpenBabel11261919493D

 24 23  0  0  0  0  0  0  0  0999 V2000
   -1.6214    0.0754   -0.1406 C   0  0  0  0  0  0  0  0  0  0  0  0
   -2.9987    0.0287   -0.1739 N   0  0  0  0  0  0  0  0  0  0  0  0
   -4.1205    0.0443   -0.1886 N   0  0  0  0  0  0  0  0  0  0  0  0
   -1.0973    1.3626    0.1284 C   0  0  0  0  0  0  0  0  0  0  0  0
    0.3096    1.3118    0.1423 C   0  0  0  0  0  0  0  0  0  0  0  0
    1.0610    0.1473   -0.0792 C   0  0  0  0  0  0  0  0  0  0  0  0
    2.4084    0.2829   -0.0276 O   0  0  0  0  0  0  0  0  0  0  0  0
    3.2418   -0.8499   -0.2400 C   0  0  0  0  0  0  0  0  0  0  0  0
    0.4283   -1.1024   -0.3422 C   0  0  0  0  0  0  0  0  0  0  0  0
   -0.9451   -1.1517   -0.3762 C   0  0  0  0  0  0  0  0  0  0  0  0
   -3.6370    4.2385    0.6973 H   0  0  0  0  0  0  0  0  0  0  0  0
    0.8919    2.2139    0.3350 H   0  0  0  0  0  0  0  0  0  0  0  0
    4.2665   -0.4868   -0.1495 H   0  0  0  0  0  0  0  0  0  0  0  0
    3.0990   -1.2754   -1.2409 H   0  0  0  0  0  0  0  0  0  0  0  0
    3.0673   -1.6272    0.5139 H   0  0  0  0  0  0  0  0  0  0  0  0
    1.0062   -2.0016   -0.5138 H   0  0  0  0  0  0  0  0  0  0  0  0
   -1.4741   -2.0811   -0.5740 H   0  0  0  0  0  0  0  0  0  0  0  0
   -4.4537    4.7650    0.7495 O   0  0  0  0  0  0  0  0  0  0  0  0
   -5.4857    3.9496    0.5191 C   0  0  0  0  0  0  0  0  0  0  0  0
   -5.4337    2.7697    0.2848 O   0  0  0  0  0  0  0  0  0  0  0  0
   -6.8095    4.7400    0.6044 C   0  0  0  0  0  0  0  0  0  0  0  0
   -6.7983    5.7739   -0.2546 F   0  0  0  0  0  0  0  0  0  0  0  0
   -7.8410    3.9467    0.3088 F   0  0  0  0  0  0  0  0  0  0  0  0
   -6.9786    5.2244    1.8479 F   0  0  0  0  0  0  0  0  0  0  0  0
  1  4  2  0  0  0  0
  2  1  1  0  0  0  0
  3  2  1  0  0  0  0
  4  5  1  0  0  0  0
  5 12  1  0  0  0  0
  6  7  1  0  0  0  0
  6  5  2  0  0  0  0
  8 13  1  0  0  0  0
  8  7  1  0  0  0  0
  8 15  1  0  0  0  0
  9  6  1  0  0  0  0
 10  9  2  0  0  0  0
 10  1  1  0  0  0  0
 11 18  1  0  0  0  0
 14  8  1  0  0  0  0
 16  9  1  0  0  0  0
 17 10  1  0  0  0  0
 19 21  1  0  0  0  0
 19 18  1  0  0  0  0
 20 19  2  0  0  0  0
 21 24  1  0  0  0  0
 22 21  1  0  0  0  0
 23 21  1  0  0  0  0
M  RAD  3   2   2   3   3   4   2
M  END
