Coordinates from ORCA-job 4-MeOPhN2+~CF3COO-_B3LYPG-6-31G_dp-CH-Scan-d09-49-n800
 OpenBabel11261919493D

 24 23  0  0  0  0  0  0  0  0999 V2000
   -2.3059    0.4800    0.3390 C   0  0  0  0  0  0  0  0  0  0  0  0
   -3.7052    0.3026    0.4088 N   0  0  0  0  0  0  0  0  0  0  0  0
   -4.5596   -0.4288    0.2994 N   0  0  0  0  0  0  0  0  0  0  0  0
   -1.6836    1.6326    0.8335 C   0  0  0  0  0  0  0  0  0  0  0  0
   -0.3047    1.7100    0.7547 C   0  0  0  0  0  0  0  0  0  0  0  0
    0.4495    0.6669    0.1842 C   0  0  0  0  0  0  0  0  0  0  0  0
    1.7825    0.8597    0.1555 O   0  0  0  0  0  0  0  0  0  0  0  0
    2.6186   -0.1422   -0.4214 C   0  0  0  0  0  0  0  0  0  0  0  0
   -0.1986   -0.4812   -0.3087 C   0  0  0  0  0  0  0  0  0  0  0  0
   -1.5802   -0.5768   -0.2268 C   0  0  0  0  0  0  0  0  0  0  0  0
   -2.1957    2.3100    1.2004 H   0  0  0  0  0  0  0  0  0  0  0  0
    0.2206    2.5830    1.1258 H   0  0  0  0  0  0  0  0  0  0  0  0
    3.6359    0.2412   -0.3416 H   0  0  0  0  0  0  0  0  0  0  0  0
    2.3724   -0.3058   -1.4767 H   0  0  0  0  0  0  0  0  0  0  0  0
    2.5426   -1.0880    0.1272 H   0  0  0  0  0  0  0  0  0  0  0  0
    0.3608   -1.2942   -0.7535 H   0  0  0  0  0  0  0  0  0  0  0  0
   -2.0971   -1.4523   -0.6034 H   0  0  0  0  0  0  0  0  0  0  0  0
   -4.3627    2.1967    1.0437 O   0  0  0  0  0  0  0  0  0  0  0  0
   -4.6122    2.7834   -0.0715 C   0  0  0  0  0  0  0  0  0  0  0  0
   -4.3279    2.4224   -1.2102 O   0  0  0  0  0  0  0  0  0  0  0  0
   -5.3325    4.1465    0.1370 C   0  0  0  0  0  0  0  0  0  0  0  0
   -5.7727    4.6627   -1.0196 F   0  0  0  0  0  0  0  0  0  0  0  0
   -6.3867    4.0323    0.9685 F   0  0  0  0  0  0  0  0  0  0  0  0
   -4.4722    5.0378    0.6861 F   0  0  0  0  0  0  0  0  0  0  0  0
  1  2  1  0  0  0  0
  1  4  2  0  0  0  0
  3  2  2  0  0  0  0
  4 11  1  0  0  0  0
  5  4  1  0  0  0  0
  5 12  1  0  0  0  0
  6  5  2  0  0  0  0
  7  6  1  0  0  0  0
  8 13  1  0  0  0  0
  8 15  1  0  0  0  0
  8  7  1  0  0  0  0
  9 10  2  0  0  0  0
  9  6  1  0  0  0  0
 10  1  1  0  0  0  0
 14  8  1  0  0  0  0
 16  9  1  0  0  0  0
 17 10  1  0  0  0  0
 19 21  1  0  0  0  0
 19 18  1  0  0  0  0
 20 19  2  0  0  0  0
 21 24  1  0  0  0  0
 21 23  1  0  0  0  0
 22 21  1  0  0  0  0
M  RAD  2   3   2  18   2
M  END
