Coordinates from ORCA-job 4-MeOPhN2+~CF3COO-_B3LYPG-6-31G_dp-CH-Scan-d09-49-n800
 OpenBabel11261919493D

 24 23  0  0  0  0  0  0  0  0999 V2000
   -2.2872    0.4746    0.3741 C   0  0  0  0  0  0  0  0  0  0  0  0
   -3.6843    0.3026    0.4588 N   0  0  0  0  0  0  0  0  0  0  0  0
   -4.5546   -0.4104    0.3692 N   0  0  0  0  0  0  0  0  0  0  0  0
   -1.6425    1.5949    0.9063 C   0  0  0  0  0  0  0  0  0  0  0  0
   -0.2672    1.6744    0.8229 C   0  0  0  0  0  0  0  0  0  0  0  0
    0.4695    0.6474    0.1994 C   0  0  0  0  0  0  0  0  0  0  0  0
    1.8035    0.8290    0.1623 O   0  0  0  0  0  0  0  0  0  0  0  0
    2.6238   -0.1521   -0.4706 C   0  0  0  0  0  0  0  0  0  0  0  0
   -0.1941   -0.4746   -0.3339 C   0  0  0  0  0  0  0  0  0  0  0  0
   -1.5751   -0.5650   -0.2420 C   0  0  0  0  0  0  0  0  0  0  0  0
   -2.3379    2.4469    1.4118 H   0  0  0  0  0  0  0  0  0  0  0  0
    0.2701    2.5260    1.2240 H   0  0  0  0  0  0  0  0  0  0  0  0
    3.6449    0.2206   -0.3889 H   0  0  0  0  0  0  0  0  0  0  0  0
    2.3610   -0.2671   -1.5284 H   0  0  0  0  0  0  0  0  0  0  0  0
    2.5489   -1.1206    0.0369 H   0  0  0  0  0  0  0  0  0  0  0  0
    0.3550   -1.2725   -0.8173 H   0  0  0  0  0  0  0  0  0  0  0  0
   -2.1020   -1.4212   -0.6486 H   0  0  0  0  0  0  0  0  0  0  0  0
   -4.3626    2.2493    1.0786 O   0  0  0  0  0  0  0  0  0  0  0  0
   -4.6062    2.7837   -0.0623 C   0  0  0  0  0  0  0  0  0  0  0  0
   -4.3075    2.3737   -1.1817 O   0  0  0  0  0  0  0  0  0  0  0  0
   -5.3509    4.1426    0.0745 C   0  0  0  0  0  0  0  0  0  0  0  0
   -5.7259    4.6334   -1.1158 F   0  0  0  0  0  0  0  0  0  0  0  0
   -6.4540    4.0277    0.8412 F   0  0  0  0  0  0  0  0  0  0  0  0
   -4.5392    5.0554    0.6600 F   0  0  0  0  0  0  0  0  0  0  0  0
  1  2  1  0  0  0  0
  1  4  2  0  0  0  0
  3  2  2  0  0  0  0
  4 11  1  0  0  0  0
  5  4  1  0  0  0  0
  5 12  1  0  0  0  0
  6  5  2  0  0  0  0
  7  6  1  0  0  0  0
  8 13  1  0  0  0  0
  8 15  1  0  0  0  0
  8  7  1  0  0  0  0
  9 10  2  0  0  0  0
  9  6  1  0  0  0  0
 10  1  1  0  0  0  0
 14  8  1  0  0  0  0
 16  9  1  0  0  0  0
 17 10  1  0  0  0  0
 19 21  1  0  0  0  0
 19 18  1  0  0  0  0
 20 19  2  0  0  0  0
 21 24  1  0  0  0  0
 21 23  1  0  0  0  0
 22 21  1  0  0  0  0
M  RAD  2   3   2  18   2
M  END
