Coordinates from ORCA-job 4-MeOPhN2+~CF3COO-_B3LYPG-6-31G_dp-CH-Scan-d09-49-n800
 OpenBabel11261919493D

 24 23  0  0  0  0  0  0  0  0999 V2000
   -2.2934    0.4790    0.3649 C   0  0  0  0  0  0  0  0  0  0  0  0
   -3.6924    0.3043    0.4434 N   0  0  0  0  0  0  0  0  0  0  0  0
   -4.5502   -0.4239    0.3452 N   0  0  0  0  0  0  0  0  0  0  0  0
   -1.6541    1.6079    0.8874 C   0  0  0  0  0  0  0  0  0  0  0  0
   -0.2772    1.6852    0.8051 C   0  0  0  0  0  0  0  0  0  0  0  0
    0.4642    0.6537    0.1960 C   0  0  0  0  0  0  0  0  0  0  0  0
    1.7981    0.8378    0.1618 O   0  0  0  0  0  0  0  0  0  0  0  0
    2.6223   -0.1503   -0.4546 C   0  0  0  0  0  0  0  0  0  0  0  0
   -0.1959   -0.4749   -0.3266 C   0  0  0  0  0  0  0  0  0  0  0  0
   -1.5772   -0.5652   -0.2373 C   0  0  0  0  0  0  0  0  0  0  0  0
   -2.2915    2.4198    1.3601 H   0  0  0  0  0  0  0  0  0  0  0  0
    0.2571    2.5421    1.1990 H   0  0  0  0  0  0  0  0  0  0  0  0
    3.6428    0.2242   -0.3725 H   0  0  0  0  0  0  0  0  0  0  0  0
    2.3651   -0.2790   -1.5121 H   0  0  0  0  0  0  0  0  0  0  0  0
    2.5457   -1.1125    0.0647 H   0  0  0  0  0  0  0  0  0  0  0  0
    0.3552   -1.2776   -0.7997 H   0  0  0  0  0  0  0  0  0  0  0  0
   -2.1019   -1.4263   -0.6362 H   0  0  0  0  0  0  0  0  0  0  0  0
   -4.3700    2.2209    1.0548 O   0  0  0  0  0  0  0  0  0  0  0  0
   -4.6143    2.7792   -0.0757 C   0  0  0  0  0  0  0  0  0  0  0  0
   -4.3209    2.3918   -1.2035 O   0  0  0  0  0  0  0  0  0  0  0  0
   -5.3450    4.1422    0.0941 C   0  0  0  0  0  0  0  0  0  0  0  0
   -5.7595    4.6391   -1.0803 F   0  0  0  0  0  0  0  0  0  0  0  0
   -6.4188    4.0351    0.9015 F   0  0  0  0  0  0  0  0  0  0  0  0
   -4.5028    5.0461    0.6507 F   0  0  0  0  0  0  0  0  0  0  0  0
  1  2  1  0  0  0  0
  1  4  2  0  0  0  0
  3  2  2  0  0  0  0
  4 11  1  0  0  0  0
  5  4  1  0  0  0  0
  5 12  1  0  0  0  0
  6  5  2  0  0  0  0
  7  6  1  0  0  0  0
  8 13  1  0  0  0  0
  8 15  1  0  0  0  0
  8  7  1  0  0  0  0
  9 10  2  0  0  0  0
  9  6  1  0  0  0  0
 10  1  1  0  0  0  0
 14  8  1  0  0  0  0
 16  9  1  0  0  0  0
 17 10  1  0  0  0  0
 19 21  1  0  0  0  0
 19 18  1  0  0  0  0
 20 19  2  0  0  0  0
 21 24  1  0  0  0  0
 21 23  1  0  0  0  0
 22 21  1  0  0  0  0
M  RAD  2   3   2  18   2
M  END
