Coordinates from ORCA-job 4-MeOPhN2+~CF3COO-_B3LYPG-6-31G_dp-CH-Scan-d09-49-n800
 OpenBabel11261919493D

 24 23  0  0  0  0  0  0  0  0999 V2000
   -1.9614    0.0409   -0.2029 C   0  0  0  0  0  0  0  0  0  0  0  0
   -3.3209   -0.1535   -0.2839 N   0  0  0  0  0  0  0  0  0  0  0  0
   -4.4341   -0.2692   -0.3410 N   0  0  0  0  0  0  0  0  0  0  0  0
   -1.5592    1.3689    0.0801 C   0  0  0  0  0  0  0  0  0  0  0  0
   -0.1616    1.4654    0.1466 C   0  0  0  0  0  0  0  0  0  0  0  0
    0.7088    0.3786   -0.0429 C   0  0  0  0  0  0  0  0  0  0  0  0
    2.0293    0.6475    0.0607 O   0  0  0  0  0  0  0  0  0  0  0  0
    2.9808   -0.3984   -0.1070 C   0  0  0  0  0  0  0  0  0  0  0  0
    0.2091   -0.9235   -0.3260 C   0  0  0  0  0  0  0  0  0  0  0  0
   -1.1514   -1.1063   -0.4096 C   0  0  0  0  0  0  0  0  0  0  0  0
   -3.1657    3.2389    0.4079 H   0  0  0  0  0  0  0  0  0  0  0  0
    0.3165    2.4210    0.3583 H   0  0  0  0  0  0  0  0  0  0  0  0
    3.9581    0.0650    0.0315 H   0  0  0  0  0  0  0  0  0  0  0  0
    2.9279   -0.8336   -1.1120 H   0  0  0  0  0  0  0  0  0  0  0  0
    2.8464   -1.1883    0.6415 H   0  0  0  0  0  0  0  0  0  0  0  0
    0.8759   -1.7632   -0.4749 H   0  0  0  0  0  0  0  0  0  0  0  0
   -1.5777   -2.0827   -0.6246 H   0  0  0  0  0  0  0  0  0  0  0  0
   -3.8123    3.9732    0.5367 O   0  0  0  0  0  0  0  0  0  0  0  0
   -5.0423    3.4927    0.4582 C   0  0  0  0  0  0  0  0  0  0  0  0
   -5.3789    2.3481    0.2618 O   0  0  0  0  0  0  0  0  0  0  0  0
   -6.0692    4.6314    0.6504 C   0  0  0  0  0  0  0  0  0  0  0  0
   -5.9381    5.5483   -0.3270 F   0  0  0  0  0  0  0  0  0  0  0  0
   -7.3152    4.1502    0.6168 F   0  0  0  0  0  0  0  0  0  0  0  0
   -5.8795    5.2472    1.8317 F   0  0  0  0  0  0  0  0  0  0  0  0
  1  4  2  0  0  0  0
  2  1  1  0  0  0  0
  3  2  1  0  0  0  0
  4  5  1  0  0  0  0
  5 12  1  0  0  0  0
  6  7  1  0  0  0  0
  6  5  2  0  0  0  0
  8 13  1  0  0  0  0
  8  7  1  0  0  0  0
  8 15  1  0  0  0  0
  9  6  1  0  0  0  0
 10  9  2  0  0  0  0
 10  1  1  0  0  0  0
 11 18  1  0  0  0  0
 14  8  1  0  0  0  0
 16  9  1  0  0  0  0
 17 10  1  0  0  0  0
 19 18  1  0  0  0  0
 19 21  1  0  0  0  0
 20 19  2  0  0  0  0
 21 24  1  0  0  0  0
 22 21  1  0  0  0  0
 23 21  1  0  0  0  0
M  RAD  3   2   2   3   3   4   2
M  END
