Coordinates from ORCA-job 4-MeOPhN2+~CF3COO-_B3LYPG-6-31G_dp-CH-Scan-d09-49-n800
 OpenBabel11261919493D

 24 23  0  0  0  0  0  0  0  0999 V2000
   -1.5351    0.1137   -0.2764 C   0  0  0  0  0  0  0  0  0  0  0  0
   -2.9114    0.1146   -0.3609 N   0  0  0  0  0  0  0  0  0  0  0  0
   -4.0304    0.1730   -0.4232 N   0  0  0  0  0  0  0  0  0  0  0  0
   -0.9776    1.3957   -0.0552 C   0  0  0  0  0  0  0  0  0  0  0  0
    0.4254    1.2982    0.0178 C   0  0  0  0  0  0  0  0  0  0  0  0
    1.1424    0.0988   -0.1104 C   0  0  0  0  0  0  0  0  0  0  0  0
    2.4911    0.1912   -0.0105 O   0  0  0  0  0  0  0  0  0  0  0  0
    3.2900   -0.9803   -0.1215 C   0  0  0  0  0  0  0  0  0  0  0  0
    0.4762   -1.1416   -0.3333 C   0  0  0  0  0  0  0  0  0  0  0  0
   -0.8957   -1.1469   -0.4205 C   0  0  0  0  0  0  0  0  0  0  0  0
   -3.7735    4.5151    0.4890 H   0  0  0  0  0  0  0  0  0  0  0  0
    1.0320    2.1893    0.1856 H   0  0  0  0  0  0  0  0  0  0  0  0
    4.3226   -0.6489   -0.0032 H   0  0  0  0  0  0  0  0  0  0  0  0
    3.1758   -1.4565   -1.1033 H   0  0  0  0  0  0  0  0  0  0  0  0
    3.0525   -1.7070    0.6649 H   0  0  0  0  0  0  0  0  0  0  0  0
    1.0289   -2.0672   -0.4347 H   0  0  0  0  0  0  0  0  0  0  0  0
   -1.4495   -2.0671   -0.5911 H   0  0  0  0  0  0  0  0  0  0  0  0
   -4.6219    4.9649    0.6444 O   0  0  0  0  0  0  0  0  0  0  0  0
   -5.5955    4.0574    0.5234 C   0  0  0  0  0  0  0  0  0  0  0  0
   -5.4616    2.8890    0.2666 O   0  0  0  0  0  0  0  0  0  0  0  0
   -6.9670    4.7245    0.7653 C   0  0  0  0  0  0  0  0  0  0  0  0
   -7.1645    5.7194   -0.1172 F   0  0  0  0  0  0  0  0  0  0  0  0
   -7.9466    3.8287    0.6292 F   0  0  0  0  0  0  0  0  0  0  0  0
   -7.0212    5.2407    2.0054 F   0  0  0  0  0  0  0  0  0  0  0  0
  1  4  2  0  0  0  0
  2  1  1  0  0  0  0
  3  2  1  0  0  0  0
  4  5  1  0  0  0  0
  5 12  1  0  0  0  0
  6  7  1  0  0  0  0
  6  5  2  0  0  0  0
  8  7  1  0  0  0  0
  8 13  1  0  0  0  0
  8 15  1  0  0  0  0
  9  6  1  0  0  0  0
 10  9  2  0  0  0  0
 10  1  1  0  0  0  0
 11 18  1  0  0  0  0
 14  8  1  0  0  0  0
 16  9  1  0  0  0  0
 17 10  1  0  0  0  0
 19 18  1  0  0  0  0
 19 21  1  0  0  0  0
 20 19  2  0  0  0  0
 21 24  1  0  0  0  0
 22 21  1  0  0  0  0
 23 21  1  0  0  0  0
M  RAD  3   2   2   3   3   4   2
M  END
