Coordinates from ORCA-job 4-MeOPhN2+~CF3COO-_B3LYPG-6-31G_dp-CH-Scan-d09-49-n800
 OpenBabel11261919493D

 24 23  0  0  0  0  0  0  0  0999 V2000
   -2.0196    0.0395   -0.2040 C   0  0  0  0  0  0  0  0  0  0  0  0
   -3.3747   -0.1793   -0.2903 N   0  0  0  0  0  0  0  0  0  0  0  0
   -4.4851   -0.3140   -0.3514 N   0  0  0  0  0  0  0  0  0  0  0  0
   -1.6358    1.3724    0.0829 C   0  0  0  0  0  0  0  0  0  0  0  0
   -0.2412    1.4916    0.1540 C   0  0  0  0  0  0  0  0  0  0  0  0
    0.6471    0.4188   -0.0352 C   0  0  0  0  0  0  0  0  0  0  0  0
    1.9619    0.7087    0.0727 O   0  0  0  0  0  0  0  0  0  0  0  0
    2.9310   -0.3217   -0.0939 C   0  0  0  0  0  0  0  0  0  0  0  0
    0.1681   -0.8897   -0.3221 C   0  0  0  0  0  0  0  0  0  0  0  0
   -1.1894   -1.0928   -0.4101 C   0  0  0  0  0  0  0  0  0  0  0  0
   -3.0898    3.0718    0.3835 H   0  0  0  0  0  0  0  0  0  0  0  0
    0.2199    2.4544    0.3693 H   0  0  0  0  0  0  0  0  0  0  0  0
    3.9000    0.1575    0.0483 H   0  0  0  0  0  0  0  0  0  0  0  0
    2.8877   -0.7557   -1.0997 H   0  0  0  0  0  0  0  0  0  0  0  0
    2.8069   -1.1146    0.6532 H   0  0  0  0  0  0  0  0  0  0  0  0
    0.8476   -1.7190   -0.4707 H   0  0  0  0  0  0  0  0  0  0  0  0
   -1.5999   -2.0751   -0.6281 H   0  0  0  0  0  0  0  0  0  0  0  0
   -3.7126    3.8378    0.5185 O   0  0  0  0  0  0  0  0  0  0  0  0
   -4.9606    3.4175    0.4463 C   0  0  0  0  0  0  0  0  0  0  0  0
   -5.3574    2.2905    0.2491 O   0  0  0  0  0  0  0  0  0  0  0  0
   -5.9347    4.6011    0.6455 C   0  0  0  0  0  0  0  0  0  0  0  0
   -5.7769    5.5076   -0.3383 F   0  0  0  0  0  0  0  0  0  0  0  0
   -7.2021    4.1761    0.6298 F   0  0  0  0  0  0  0  0  0  0  0  0
   -5.7050    5.2151    1.8211 F   0  0  0  0  0  0  0  0  0  0  0  0
  1  4  2  0  0  0  0
  2  1  1  0  0  0  0
  3  2  1  0  0  0  0
  4  5  1  0  0  0  0
  5 12  1  0  0  0  0
  6  7  1  0  0  0  0
  6  5  2  0  0  0  0
  8 13  1  0  0  0  0
  8  7  1  0  0  0  0
  8 15  1  0  0  0  0
  9  6  1  0  0  0  0
 10  9  2  0  0  0  0
 10  1  1  0  0  0  0
 11 18  1  0  0  0  0
 14  8  1  0  0  0  0
 16  9  1  0  0  0  0
 17 10  1  0  0  0  0
 19 18  1  0  0  0  0
 19 21  1  0  0  0  0
 20 19  2  0  0  0  0
 21 24  1  0  0  0  0
 22 21  1  0  0  0  0
 23 21  1  0  0  0  0
M  RAD  3   2   2   3   3   4   2
M  END
