Coordinates from ORCA-job 4-MeOPhN2+~CF3COO-_B3LYPG-6-31G_dp-CH-Scan-d09-49-n800
 OpenBabel11261919493D

 24 23  0  0  0  0  0  0  0  0999 V2000
   -1.5998    0.0817   -0.1367 C   0  0  0  0  0  0  0  0  0  0  0  0
   -2.9777    0.0460   -0.1668 N   0  0  0  0  0  0  0  0  0  0  0  0
   -4.0994    0.0711   -0.1808 N   0  0  0  0  0  0  0  0  0  0  0  0
   -1.0658    1.3650    0.1308 C   0  0  0  0  0  0  0  0  0  0  0  0
    0.3408    1.3033    0.1417 C   0  0  0  0  0  0  0  0  0  0  0  0
    1.0828    0.1331   -0.0815 C   0  0  0  0  0  0  0  0  0  0  0  0
    2.4314    0.2585   -0.0333 O   0  0  0  0  0  0  0  0  0  0  0  0
    3.2556   -0.8805   -0.2485 C   0  0  0  0  0  0  0  0  0  0  0  0
    0.4401   -1.1119   -0.3428 C   0  0  0  0  0  0  0  0  0  0  0  0
   -0.9338   -1.1508   -0.3736 C   0  0  0  0  0  0  0  0  0  0  0  0
   -3.6710    4.3075    0.7190 H   0  0  0  0  0  0  0  0  0  0  0  0
    0.9305    2.2009    0.3330 H   0  0  0  0  0  0  0  0  0  0  0  0
    4.2833   -0.5251   -0.1611 H   0  0  0  0  0  0  0  0  0  0  0  0
    3.1065   -1.3047   -1.2491 H   0  0  0  0  0  0  0  0  0  0  0  0
    3.0777   -1.6566    0.5058 H   0  0  0  0  0  0  0  0  0  0  0  0
    1.0107   -2.0155   -0.5154 H   0  0  0  0  0  0  0  0  0  0  0  0
   -1.4702   -2.0762   -0.5698 H   0  0  0  0  0  0  0  0  0  0  0  0
   -4.4988    4.8166    0.7655 O   0  0  0  0  0  0  0  0  0  0  0  0
   -5.5109    3.9789    0.5245 C   0  0  0  0  0  0  0  0  0  0  0  0
   -5.4305    2.8010    0.2888 O   0  0  0  0  0  0  0  0  0  0  0  0
   -6.8526    4.7396    0.6000 C   0  0  0  0  0  0  0  0  0  0  0  0
   -6.8560    5.7772   -0.2546 F   0  0  0  0  0  0  0  0  0  0  0  0
   -7.8632    3.9249    0.2913 F   0  0  0  0  0  0  0  0  0  0  0  0
   -7.0442    5.2147    1.8438 F   0  0  0  0  0  0  0  0  0  0  0  0
  1  4  2  0  0  0  0
  2  1  1  0  0  0  0
  3  2  1  0  0  0  0
  4  5  1  0  0  0  0
  5 12  1  0  0  0  0
  6  7  1  0  0  0  0
  6  5  2  0  0  0  0
  8 13  1  0  0  0  0
  8  7  1  0  0  0  0
  8 15  1  0  0  0  0
  9  6  1  0  0  0  0
 10  9  2  0  0  0  0
 10  1  1  0  0  0  0
 11 18  1  0  0  0  0
 14  8  1  0  0  0  0
 16  9  1  0  0  0  0
 17 10  1  0  0  0  0
 19 21  1  0  0  0  0
 19 18  1  0  0  0  0
 20 19  2  0  0  0  0
 21 24  1  0  0  0  0
 22 21  1  0  0  0  0
 23 21  1  0  0  0  0
M  RAD  3   2   2   3   3   4   2
M  END
