Coordinates from ORCA-job 4-MeOPhN2+~CF3COO-_B3LYPG-6-31G_dp-CH-Scan-d09-49-n800
 OpenBabel11261919493D

 24 23  0  0  0  0  0  0  0  0999 V2000
   -1.9246    0.0422   -0.2007 C   0  0  0  0  0  0  0  0  0  0  0  0
   -3.2868   -0.1371   -0.2785 N   0  0  0  0  0  0  0  0  0  0  0  0
   -4.4014   -0.2392   -0.3355 N   0  0  0  0  0  0  0  0  0  0  0  0
   -1.5105    1.3670    0.0798 C   0  0  0  0  0  0  0  0  0  0  0  0
   -0.1113    1.4487    0.1429 C   0  0  0  0  0  0  0  0  0  0  0  0
    0.7477    0.3532   -0.0472 C   0  0  0  0  0  0  0  0  0  0  0  0
    2.0716    0.6088    0.0528 O   0  0  0  0  0  0  0  0  0  0  0  0
    3.0118   -0.4468   -0.1167 C   0  0  0  0  0  0  0  0  0  0  0  0
    0.2348   -0.9447   -0.3276 C   0  0  0  0  0  0  0  0  0  0  0  0
   -1.1276   -1.1143   -0.4080 C   0  0  0  0  0  0  0  0  0  0  0  0
   -3.2133    3.3444    0.4244 H   0  0  0  0  0  0  0  0  0  0  0  0
    0.3776    2.3996    0.3523 H   0  0  0  0  0  0  0  0  0  0  0  0
    3.9942    0.0067    0.0184 H   0  0  0  0  0  0  0  0  0  0  0  0
    2.9516   -0.8825   -1.1212 H   0  0  0  0  0  0  0  0  0  0  0  0
    2.8718   -1.2348    0.6328 H   0  0  0  0  0  0  0  0  0  0  0  0
    0.8932   -1.7909   -0.4769 H   0  0  0  0  0  0  0  0  0  0  0  0
   -1.5642   -2.0867   -0.6208 H   0  0  0  0  0  0  0  0  0  0  0  0
   -3.8768    4.0588    0.5489 O   0  0  0  0  0  0  0  0  0  0  0  0
   -5.0935    3.5405    0.4657 C   0  0  0  0  0  0  0  0  0  0  0  0
   -5.3917    2.3861    0.2703 O   0  0  0  0  0  0  0  0  0  0  0  0
   -6.1533    4.6493    0.6523 C   0  0  0  0  0  0  0  0  0  0  0  0
   -6.0371    5.5742   -0.3190 F   0  0  0  0  0  0  0  0  0  0  0  0
   -7.3845    4.1332    0.6034 F   0  0  0  0  0  0  0  0  0  0  0  0
   -5.9922    5.2630    1.8387 F   0  0  0  0  0  0  0  0  0  0  0  0
  1  4  2  0  0  0  0
  2  1  1  0  0  0  0
  3  2  1  0  0  0  0
  4  5  1  0  0  0  0
  5 12  1  0  0  0  0
  6  7  1  0  0  0  0
  6  5  2  0  0  0  0
  8 13  1  0  0  0  0
  8  7  1  0  0  0  0
  8 15  1  0  0  0  0
  9  6  1  0  0  0  0
 10  9  2  0  0  0  0
 10  1  1  0  0  0  0
 11 18  1  0  0  0  0
 14  8  1  0  0  0  0
 16  9  1  0  0  0  0
 17 10  1  0  0  0  0
 19 18  1  0  0  0  0
 19 21  1  0  0  0  0
 20 19  2  0  0  0  0
 21 24  1  0  0  0  0
 22 21  1  0  0  0  0
 23 21  1  0  0  0  0
M  RAD  3   2   2   3   3   4   2
M  END
