Coordinates from ORCA-job 4-MeOPhN2+~CF3COO-_B3LYPG-6-31G_dp-CH-Scan-d09-49-n800
 OpenBabel11261919493D

 24 23  0  0  0  0  0  0  0  0999 V2000
   -1.4046    0.1599   -0.2604 C   0  0  0  0  0  0  0  0  0  0  0  0
   -2.7802    0.2288   -0.3291 N   0  0  0  0  0  0  0  0  0  0  0  0
   -3.8952    0.3484   -0.3784 N   0  0  0  0  0  0  0  0  0  0  0  0
   -0.7863    1.4170   -0.0613 C   0  0  0  0  0  0  0  0  0  0  0  0
    0.6118    1.2544   -0.0038 C   0  0  0  0  0  0  0  0  0  0  0  0
    1.2698    0.0215   -0.1279 C   0  0  0  0  0  0  0  0  0  0  0  0
    2.6230    0.0519   -0.0479 O   0  0  0  0  0  0  0  0  0  0  0  0
    3.3653   -1.1559   -0.1628 C   0  0  0  0  0  0  0  0  0  0  0  0
    0.5436   -1.1892   -0.3268 C   0  0  0  0  0  0  0  0  0  0  0  0
   -0.8281   -1.1315   -0.3965 C   0  0  0  0  0  0  0  0  0  0  0  0
   -3.9976    4.8403    0.5606 H   0  0  0  0  0  0  0  0  0  0  0  0
    1.2615    2.1179    0.1464 H   0  0  0  0  0  0  0  0  0  0  0  0
    4.4140   -0.8713   -0.0660 H   0  0  0  0  0  0  0  0  0  0  0  0
    3.2116   -1.6344   -1.1382 H   0  0  0  0  0  0  0  0  0  0  0  0
    3.1096   -1.8649    0.6341 H   0  0  0  0  0  0  0  0  0  0  0  0
    1.0513   -2.1407   -0.4231 H   0  0  0  0  0  0  0  0  0  0  0  0
   -1.4267   -2.0267   -0.5477 H   0  0  0  0  0  0  0  0  0  0  0  0
   -4.8894    5.2054    0.6955 O   0  0  0  0  0  0  0  0  0  0  0  0
   -5.7647    4.2046    0.5502 C   0  0  0  0  0  0  0  0  0  0  0  0
   -5.5044    3.0572    0.2987 O   0  0  0  0  0  0  0  0  0  0  0  0
   -7.2020    4.7296    0.7560 C   0  0  0  0  0  0  0  0  0  0  0  0
   -7.4750    5.7029   -0.1300 F   0  0  0  0  0  0  0  0  0  0  0  0
   -8.0822    3.7402    0.5935 F   0  0  0  0  0  0  0  0  0  0  0  0
   -7.3395    5.2331    1.9952 F   0  0  0  0  0  0  0  0  0  0  0  0
  1  4  2  0  0  0  0
  2  1  1  0  0  0  0
  3  2  1  0  0  0  0
  4  5  1  0  0  0  0
  5 12  1  0  0  0  0
  6  7  1  0  0  0  0
  6  5  2  0  0  0  0
  8 13  1  0  0  0  0
  8  7  1  0  0  0  0
  8 15  1  0  0  0  0
  9  6  1  0  0  0  0
 10  9  2  0  0  0  0
 10  1  1  0  0  0  0
 11 18  1  0  0  0  0
 14  8  1  0  0  0  0
 16  9  1  0  0  0  0
 17 10  1  0  0  0  0
 19 18  1  0  0  0  0
 19 21  1  0  0  0  0
 20 19  2  0  0  0  0
 21 24  1  0  0  0  0
 22 21  1  0  0  0  0
 23 21  1  0  0  0  0
M  RAD  3   2   2   3   3   4   2
M  END
