Coordinates from ORCA-job 4-MeOPhN2+~CF3COO-_B3LYPG-6-31G_dp-CH-Scan-d09-49-n800
 OpenBabel11261919493D

 24 23  0  0  0  0  0  0  0  0999 V2000
   -1.8364    0.0487   -0.1704 C   0  0  0  0  0  0  0  0  0  0  0  0
   -3.2044   -0.0935   -0.2314 N   0  0  0  0  0  0  0  0  0  0  0  0
   -4.3226   -0.1646   -0.2729 N   0  0  0  0  0  0  0  0  0  0  0  0
   -1.3907    1.3643    0.1050 C   0  0  0  0  0  0  0  0  0  0  0  0
    0.0126    1.4082    0.1475 C   0  0  0  0  0  0  0  0  0  0  0  0
    0.8411    0.2924   -0.0559 C   0  0  0  0  0  0  0  0  0  0  0  0
    2.1736    0.5144    0.0230 O   0  0  0  0  0  0  0  0  0  0  0  0
    3.0833   -0.5637   -0.1653 C   0  0  0  0  0  0  0  0  0  0  0  0
    0.2929   -0.9935   -0.3282 C   0  0  0  0  0  0  0  0  0  0  0  0
   -1.0739   -1.1294   -0.3889 C   0  0  0  0  0  0  0  0  0  0  0  0
   -3.3252    3.6048    0.5098 H   0  0  0  0  0  0  0  0  0  0  0  0
    0.5298    2.3462    0.3495 H   0  0  0  0  0  0  0  0  0  0  0  0
    4.0795   -0.1353   -0.0496 H   0  0  0  0  0  0  0  0  0  0  0  0
    2.9929   -0.9975   -1.1685 H   0  0  0  0  0  0  0  0  0  0  0  0
    2.9389   -1.3491    0.5862 H   0  0  0  0  0  0  0  0  0  0  0  0
    0.9287   -1.8553   -0.4863 H   0  0  0  0  0  0  0  0  0  0  0  0
   -1.5380   -2.0908   -0.5949 H   0  0  0  0  0  0  0  0  0  0  0  0
   -4.0349    4.2688    0.6095 O   0  0  0  0  0  0  0  0  0  0  0  0
   -5.2087    3.6595    0.4756 C   0  0  0  0  0  0  0  0  0  0  0  0
   -5.4048    2.4873    0.2686 O   0  0  0  0  0  0  0  0  0  0  0  0
   -6.3543    4.6842    0.6303 C   0  0  0  0  0  0  0  0  0  0  0  0
   -6.2265    5.6741   -0.2713 F   0  0  0  0  0  0  0  0  0  0  0  0
   -7.5367    4.0903    0.4484 F   0  0  0  0  0  0  0  0  0  0  0  0
   -6.3307    5.2280    1.8606 F   0  0  0  0  0  0  0  0  0  0  0  0
  1  4  2  0  0  0  0
  2  1  1  0  0  0  0
  3  2  1  0  0  0  0
  4  5  1  0  0  0  0
  5 12  1  0  0  0  0
  6  7  1  0  0  0  0
  6  5  2  0  0  0  0
  8 13  1  0  0  0  0
  8  7  1  0  0  0  0
  8 15  1  0  0  0  0
  9  6  1  0  0  0  0
 10  9  2  0  0  0  0
 10  1  1  0  0  0  0
 11 18  1  0  0  0  0
 14  8  1  0  0  0  0
 16  9  1  0  0  0  0
 17 10  1  0  0  0  0
 19 18  1  0  0  0  0
 19 21  1  0  0  0  0
 20 19  2  0  0  0  0
 21 24  1  0  0  0  0
 22 21  1  0  0  0  0
 23 21  1  0  0  0  0
M  RAD  3   2   2   3   3   4   2
M  END
