Coordinates from ORCA-job 4-MeOPhN2+~CF3COO-_B3LYPG-6-31G_dp-CH-Scan-d09-49-n800
 OpenBabel11261919493D

 24 23  0  0  0  0  0  0  0  0999 V2000
   -1.8836    0.0449   -0.1957 C   0  0  0  0  0  0  0  0  0  0  0  0
   -3.2484   -0.1172   -0.2704 N   0  0  0  0  0  0  0  0  0  0  0  0
   -4.3649   -0.2053   -0.3189 N   0  0  0  0  0  0  0  0  0  0  0  0
   -1.4560    1.3657    0.0834 C   0  0  0  0  0  0  0  0  0  0  0  0
   -0.0549    1.4302    0.1417 C   0  0  0  0  0  0  0  0  0  0  0  0
    0.7907    0.3252   -0.0512 C   0  0  0  0  0  0  0  0  0  0  0  0
    2.1184    0.5654    0.0437 O   0  0  0  0  0  0  0  0  0  0  0  0
    3.0454   -0.5007   -0.1306 C   0  0  0  0  0  0  0  0  0  0  0  0
    0.2626   -0.9674   -0.3295 C   0  0  0  0  0  0  0  0  0  0  0  0
   -1.1017   -1.1218   -0.4054 C   0  0  0  0  0  0  0  0  0  0  0  0
   -3.2664    3.4602    0.4479 H   0  0  0  0  0  0  0  0  0  0  0  0
    0.4464    2.3753    0.3489 H   0  0  0  0  0  0  0  0  0  0  0  0
    4.0338   -0.0587   -0.0005 H   0  0  0  0  0  0  0  0  0  0  0  0
    2.9753   -0.9359   -1.1348 H   0  0  0  0  0  0  0  0  0  0  0  0
    2.9003   -1.2873    0.6194 H   0  0  0  0  0  0  0  0  0  0  0  0
    0.9113   -1.8208   -0.4805 H   0  0  0  0  0  0  0  0  0  0  0  0
   -1.5501   -2.0893   -0.6165 H   0  0  0  0  0  0  0  0  0  0  0  0
   -3.9494    4.1529    0.5659 O   0  0  0  0  0  0  0  0  0  0  0  0
   -5.1495    3.5938    0.4733 C   0  0  0  0  0  0  0  0  0  0  0  0
   -5.4041    2.4301    0.2783 O   0  0  0  0  0  0  0  0  0  0  0  0
   -6.2459    4.6676    0.6506 C   0  0  0  0  0  0  0  0  0  0  0  0
   -6.1411    5.6052   -0.3092 F   0  0  0  0  0  0  0  0  0  0  0  0
   -7.4588    4.1135    0.5747 F   0  0  0  0  0  0  0  0  0  0  0  0
   -6.1242    5.2729    1.8458 F   0  0  0  0  0  0  0  0  0  0  0  0
  1  4  2  0  0  0  0
  2  1  1  0  0  0  0
  3  2  1  0  0  0  0
  4  5  1  0  0  0  0
  5 12  1  0  0  0  0
  6  7  1  0  0  0  0
  6  5  2  0  0  0  0
  8 13  1  0  0  0  0
  8  7  1  0  0  0  0
  8 15  1  0  0  0  0
  9  6  1  0  0  0  0
 10  9  2  0  0  0  0
 10  1  1  0  0  0  0
 11 18  1  0  0  0  0
 14  8  1  0  0  0  0
 16  9  1  0  0  0  0
 17 10  1  0  0  0  0
 19 18  1  0  0  0  0
 19 21  1  0  0  0  0
 20 19  2  0  0  0  0
 21 24  1  0  0  0  0
 22 21  1  0  0  0  0
 23 21  1  0  0  0  0
M  RAD  3   2   2   3   3   4   2
M  END
