Coordinates from ORCA-job 4-MeOPhN2+~CF3COO-_B3LYPG-6-31G_dp-CH-Scan-d09-49-n800
 OpenBabel11261919493D

 24 23  0  0  0  0  0  0  0  0999 V2000
   -2.1207    0.0392   -0.2119 C   0  0  0  0  0  0  0  0  0  0  0  0
   -3.4675   -0.2195   -0.3092 N   0  0  0  0  0  0  0  0  0  0  0  0
   -4.5736   -0.3777   -0.3768 N   0  0  0  0  0  0  0  0  0  0  0  0
   -1.7661    1.3802    0.0749 C   0  0  0  0  0  0  0  0  0  0  0  0
   -0.3785    1.5387    0.1568 C   0  0  0  0  0  0  0  0  0  0  0  0
    0.5396    0.4887   -0.0239 C   0  0  0  0  0  0  0  0  0  0  0  0
    1.8434    0.8144    0.0926 O   0  0  0  0  0  0  0  0  0  0  0  0
    2.8422   -0.1898   -0.0654 C   0  0  0  0  0  0  0  0  0  0  0  0
    0.0953   -0.8305   -0.3111 C   0  0  0  0  0  0  0  0  0  0  0  0
   -1.2565   -1.0675   -0.4084 C   0  0  0  0  0  0  0  0  0  0  0  0
   -2.9463    2.7789    0.3182 H   0  0  0  0  0  0  0  0  0  0  0  0
    0.0513    2.5149    0.3738 H   0  0  0  0  0  0  0  0  0  0  0  0
    3.7963    0.3168    0.0816 H   0  0  0  0  0  0  0  0  0  0  0  0
    2.8163   -0.6265   -1.0704 H   0  0  0  0  0  0  0  0  0  0  0  0
    2.7345   -0.9834    0.6833 H   0  0  0  0  0  0  0  0  0  0  0  0
    0.7957   -1.6433   -0.4533 H   0  0  0  0  0  0  0  0  0  0  0  0
   -1.6401   -2.0602   -0.6270 H   0  0  0  0  0  0  0  0  0  0  0  0
   -3.5473    3.6112    0.4655 O   0  0  0  0  0  0  0  0  0  0  0  0
   -4.8151    3.2903    0.4263 C   0  0  0  0  0  0  0  0  0  0  0  0
   -5.3131    2.1960    0.2439 O   0  0  0  0  0  0  0  0  0  0  0  0
   -5.7004    4.5402    0.6439 C   0  0  0  0  0  0  0  0  0  0  0  0
   -5.5016    5.4362   -0.3438 F   0  0  0  0  0  0  0  0  0  0  0  0
   -6.9980    4.2122    0.6569 F   0  0  0  0  0  0  0  0  0  0  0  0
   -5.4045    5.1392    1.8139 F   0  0  0  0  0  0  0  0  0  0  0  0
  1  4  2  0  0  0  0
  2  1  1  0  0  0  0
  3  2  1  0  0  0  0
  4  5  1  0  0  0  0
  5 12  1  0  0  0  0
  6  7  1  0  0  0  0
  6  5  2  0  0  0  0
  8 13  1  0  0  0  0
  8  7  1  0  0  0  0
  8 15  1  0  0  0  0
  9  6  1  0  0  0  0
 10  9  2  0  0  0  0
 10  1  1  0  0  0  0
 11 18  1  0  0  0  0
 14  8  1  0  0  0  0
 16  9  1  0  0  0  0
 17 10  1  0  0  0  0
 19 18  1  0  0  0  0
 19 21  1  0  0  0  0
 20 19  2  0  0  0  0
 21 23  1  0  0  0  0
 21 24  1  0  0  0  0
 22 21  1  0  0  0  0
M  RAD  3   2   2   3   3   4   2
M  END
