Coordinates from ORCA-job 4-MeOPhN2+~CF3COO-_B3LYPG-6-31G_dp-CH-Scan-d09-49-n800
 OpenBabel11261919503D

 24 23  0  0  0  0  0  0  0  0999 V2000
   -1.3674    0.1885   -0.2743 C   0  0  0  0  0  0  0  0  0  0  0  0
   -2.7414    0.2822   -0.3501 N   0  0  0  0  0  0  0  0  0  0  0  0
   -3.8542    0.4193   -0.4039 N   0  0  0  0  0  0  0  0  0  0  0  0
   -0.7272    1.4342   -0.0734 C   0  0  0  0  0  0  0  0  0  0  0  0
    0.6673    1.2461   -0.0082 C   0  0  0  0  0  0  0  0  0  0  0  0
    1.3033    0.0013   -0.1276 C   0  0  0  0  0  0  0  0  0  0  0  0
    2.6564    0.0070   -0.0407 O   0  0  0  0  0  0  0  0  0  0  0  0
    3.3771   -1.2142   -0.1519 C   0  0  0  0  0  0  0  0  0  0  0  0
    0.5561   -1.1961   -0.3292 C   0  0  0  0  0  0  0  0  0  0  0  0
   -0.8140   -1.1134   -0.4061 C   0  0  0  0  0  0  0  0  0  0  0  0
   -4.0677    4.9586    0.5028 H   0  0  0  0  0  0  0  0  0  0  0  0
    1.3319    2.0977    0.1447 H   0  0  0  0  0  0  0  0  0  0  0  0
    4.4304   -0.9486   -0.0506 H   0  0  0  0  0  0  0  0  0  0  0  0
    3.2189   -1.6902   -1.1278 H   0  0  0  0  0  0  0  0  0  0  0  0
    3.1053   -1.9182    0.6442 H   0  0  0  0  0  0  0  0  0  0  0  0
    1.0468   -2.1568   -0.4218 H   0  0  0  0  0  0  0  0  0  0  0  0
   -1.4281   -1.9977   -0.5593 H   0  0  0  0  0  0  0  0  0  0  0  0
   -4.9706    5.2852    0.6587 O   0  0  0  0  0  0  0  0  0  0  0  0
   -5.8038    4.2446    0.5463 C   0  0  0  0  0  0  0  0  0  0  0  0
   -5.4998    3.1070    0.2984 O   0  0  0  0  0  0  0  0  0  0  0  0
   -7.2571    4.7076    0.7851 C   0  0  0  0  0  0  0  0  0  0  0  0
   -7.6000    5.6492   -0.1106 F   0  0  0  0  0  0  0  0  0  0  0  0
   -8.0948    3.6760    0.6674 F   0  0  0  0  0  0  0  0  0  0  0  0
   -7.3821    5.2293    2.0180 F   0  0  0  0  0  0  0  0  0  0  0  0
  1  4  2  0  0  0  0
  2  1  1  0  0  0  0
  3  2  1  0  0  0  0
  4  5  1  0  0  0  0
  5 12  1  0  0  0  0
  6  7  1  0  0  0  0
  6  5  2  0  0  0  0
  8 13  1  0  0  0  0
  8  7  1  0  0  0  0
  8 15  1  0  0  0  0
  9  6  1  0  0  0  0
 10  9  2  0  0  0  0
 10  1  1  0  0  0  0
 11 18  1  0  0  0  0
 14  8  1  0  0  0  0
 16  9  1  0  0  0  0
 17 10  1  0  0  0  0
 19 18  1  0  0  0  0
 19 21  1  0  0  0  0
 20 19  2  0  0  0  0
 21 24  1  0  0  0  0
 22 21  1  0  0  0  0
 23 21  1  0  0  0  0
M  RAD  3   2   2   3   3   4   2
M  END
