Coordinates from ORCA-job 4-MeOPhN2+~CF3COO-_B3LYPG-6-31G_dp-CH-Scan-d09-49-n800
 OpenBabel11261919503D

 24 23  0  0  0  0  0  0  0  0999 V2000
   -1.3970    0.1671   -0.2608 C   0  0  0  0  0  0  0  0  0  0  0  0
   -2.7726    0.2410   -0.3300 N   0  0  0  0  0  0  0  0  0  0  0  0
   -3.8875    0.3618   -0.3781 N   0  0  0  0  0  0  0  0  0  0  0  0
   -0.7735    1.4214   -0.0613 C   0  0  0  0  0  0  0  0  0  0  0  0
    0.6238    1.2532   -0.0035 C   0  0  0  0  0  0  0  0  0  0  0  0
    1.2769    0.0177   -0.1278 C   0  0  0  0  0  0  0  0  0  0  0  0
    2.6301    0.0426   -0.0476 O   0  0  0  0  0  0  0  0  0  0  0  0
    3.3676   -1.1682   -0.1629 C   0  0  0  0  0  0  0  0  0  0  0  0
    0.5457   -1.1899   -0.3272 C   0  0  0  0  0  0  0  0  0  0  0  0
   -0.8257   -1.1266   -0.3972 C   0  0  0  0  0  0  0  0  0  0  0  0
   -4.0111    4.8630    0.5529 H   0  0  0  0  0  0  0  0  0  0  0  0
    1.2770    2.1140    0.1470 H   0  0  0  0  0  0  0  0  0  0  0  0
    4.4174   -0.8878   -0.0659 H   0  0  0  0  0  0  0  0  0  0  0  0
    3.2120   -1.6457   -1.1384 H   0  0  0  0  0  0  0  0  0  0  0  0
    3.1090   -1.8764    0.6338 H   0  0  0  0  0  0  0  0  0  0  0  0
    1.0496   -2.1434   -0.4236 H   0  0  0  0  0  0  0  0  0  0  0  0
   -1.4279   -2.0194   -0.5487 H   0  0  0  0  0  0  0  0  0  0  0  0
   -4.9054    5.2204    0.6900 O   0  0  0  0  0  0  0  0  0  0  0  0
   -5.7724    4.2115    0.5497 C   0  0  0  0  0  0  0  0  0  0  0  0
   -5.5039    3.0654    0.2996 O   0  0  0  0  0  0  0  0  0  0  0  0
   -7.2132    4.7250    0.7590 C   0  0  0  0  0  0  0  0  0  0  0  0
   -7.4975    5.6934   -0.1287 F   0  0  0  0  0  0  0  0  0  0  0  0
   -8.0856    3.7278    0.6024 F   0  0  0  0  0  0  0  0  0  0  0  0
   -7.3506    5.2308    1.9973 F   0  0  0  0  0  0  0  0  0  0  0  0
  1  4  2  0  0  0  0
  2  1  1  0  0  0  0
  3  2  1  0  0  0  0
  4  5  1  0  0  0  0
  5 12  1  0  0  0  0
  6  7  1  0  0  0  0
  6  5  2  0  0  0  0
  8 13  1  0  0  0  0
  8  7  1  0  0  0  0
  8 15  1  0  0  0  0
  9  6  1  0  0  0  0
 10  9  2  0  0  0  0
 10  1  1  0  0  0  0
 11 18  1  0  0  0  0
 14  8  1  0  0  0  0
 16  9  1  0  0  0  0
 17 10  1  0  0  0  0
 19 18  1  0  0  0  0
 19 21  1  0  0  0  0
 20 19  2  0  0  0  0
 21 24  1  0  0  0  0
 22 21  1  0  0  0  0
 23 21  1  0  0  0  0
M  RAD  3   2   2   3   3   4   2
M  END
