Coordinates from ORCA-job 4-MeOPhN2+~CF3COO-_B3LYPG-6-31G_dp-CH-Scan-d09-49-n800
 OpenBabel11261919493D

 24 23  0  0  0  0  0  0  0  0999 V2000
   -1.8787    0.0457   -0.1934 C   0  0  0  0  0  0  0  0  0  0  0  0
   -3.2439   -0.1140   -0.2667 N   0  0  0  0  0  0  0  0  0  0  0  0
   -4.3605   -0.1999   -0.3178 N   0  0  0  0  0  0  0  0  0  0  0  0
   -1.4490    1.3658    0.0849 C   0  0  0  0  0  0  0  0  0  0  0  0
   -0.0477    1.4282    0.1419 C   0  0  0  0  0  0  0  0  0  0  0  0
    0.7961    0.3219   -0.0518 C   0  0  0  0  0  0  0  0  0  0  0  0
    2.1243    0.5601    0.0416 O   0  0  0  0  0  0  0  0  0  0  0  0
    3.0494   -0.5075   -0.1338 C   0  0  0  0  0  0  0  0  0  0  0  0
    0.2657   -0.9700   -0.3291 C   0  0  0  0  0  0  0  0  0  0  0  0
   -1.0989   -1.1223   -0.4036 C   0  0  0  0  0  0  0  0  0  0  0  0
   -3.2728    3.4747    0.4534 H   0  0  0  0  0  0  0  0  0  0  0  0
    0.4553    2.3726    0.3485 H   0  0  0  0  0  0  0  0  0  0  0  0
    4.0387   -0.0669   -0.0051 H   0  0  0  0  0  0  0  0  0  0  0  0
    2.9774   -0.9427   -1.1378 H   0  0  0  0  0  0  0  0  0  0  0  0
    2.9042   -1.2938    0.6166 H   0  0  0  0  0  0  0  0  0  0  0  0
    0.9129   -1.8244   -0.4806 H   0  0  0  0  0  0  0  0  0  0  0  0
   -1.5490   -2.0892   -0.6140 H   0  0  0  0  0  0  0  0  0  0  0  0
   -3.9582    4.1644    0.5705 O   0  0  0  0  0  0  0  0  0  0  0  0
   -5.1557    3.6000    0.4741 C   0  0  0  0  0  0  0  0  0  0  0  0
   -5.4048    2.4353    0.2777 O   0  0  0  0  0  0  0  0  0  0  0  0
   -6.2572    4.6691    0.6491 C   0  0  0  0  0  0  0  0  0  0  0  0
   -6.1510    5.6104   -0.3068 F   0  0  0  0  0  0  0  0  0  0  0  0
   -7.4674    4.1105    0.5652 F   0  0  0  0  0  0  0  0  0  0  0  0
   -6.1438    5.2707    1.8471 F   0  0  0  0  0  0  0  0  0  0  0  0
  1  4  2  0  0  0  0
  2  1  1  0  0  0  0
  3  2  1  0  0  0  0
  4  5  1  0  0  0  0
  5 12  1  0  0  0  0
  6  7  1  0  0  0  0
  6  5  2  0  0  0  0
  8 13  1  0  0  0  0
  8  7  1  0  0  0  0
  8 15  1  0  0  0  0
  9  6  1  0  0  0  0
 10  9  2  0  0  0  0
 10  1  1  0  0  0  0
 11 18  1  0  0  0  0
 14  8  1  0  0  0  0
 16  9  1  0  0  0  0
 17 10  1  0  0  0  0
 19 18  1  0  0  0  0
 19 21  1  0  0  0  0
 20 19  2  0  0  0  0
 21 24  1  0  0  0  0
 22 21  1  0  0  0  0
 23 21  1  0  0  0  0
M  RAD  3   2   2   3   3   4   2
M  END
