Coordinates from ORCA-job 4-MeOPhN2+~CF3COO-_B3LYPG-6-31G_dp-CH-Scan-d09-49-n800
 OpenBabel11261919493D

 24 23  0  0  0  0  0  0  0  0999 V2000
   -2.1218    0.0395   -0.2129 C   0  0  0  0  0  0  0  0  0  0  0  0
   -3.4686   -0.2194   -0.3108 N   0  0  0  0  0  0  0  0  0  0  0  0
   -4.5746   -0.3776   -0.3788 N   0  0  0  0  0  0  0  0  0  0  0  0
   -1.7674    1.3806    0.0737 C   0  0  0  0  0  0  0  0  0  0  0  0
   -0.3800    1.5394    0.1562 C   0  0  0  0  0  0  0  0  0  0  0  0
    0.5384    0.4895   -0.0238 C   0  0  0  0  0  0  0  0  0  0  0  0
    1.8421    0.8155    0.0932 O   0  0  0  0  0  0  0  0  0  0  0  0
    2.8412   -0.1886   -0.0642 C   0  0  0  0  0  0  0  0  0  0  0  0
    0.0944   -0.8298   -0.3110 C   0  0  0  0  0  0  0  0  0  0  0  0
   -1.2573   -1.0670   -0.4089 C   0  0  0  0  0  0  0  0  0  0  0  0
   -2.9444    2.7757    0.3159 H   0  0  0  0  0  0  0  0  0  0  0  0
    0.0495    2.5158    0.3733 H   0  0  0  0  0  0  0  0  0  0  0  0
    3.7950    0.3182    0.0832 H   0  0  0  0  0  0  0  0  0  0  0  0
    2.8158   -0.6255   -1.0692 H   0  0  0  0  0  0  0  0  0  0  0  0
    2.7332   -0.9821    0.6846 H   0  0  0  0  0  0  0  0  0  0  0  0
    0.7950   -1.6425   -0.4528 H   0  0  0  0  0  0  0  0  0  0  0  0
   -1.6407   -2.0597   -0.6275 H   0  0  0  0  0  0  0  0  0  0  0  0
   -3.5455    3.6090    0.4629 O   0  0  0  0  0  0  0  0  0  0  0  0
   -4.8133    3.2887    0.4270 C   0  0  0  0  0  0  0  0  0  0  0  0
   -5.3123    2.1942    0.2475 O   0  0  0  0  0  0  0  0  0  0  0  0
   -5.6978    4.5392    0.6444 C   0  0  0  0  0  0  0  0  0  0  0  0
   -5.5007    5.4336   -0.3450 F   0  0  0  0  0  0  0  0  0  0  0  0
   -6.9955    4.2117    0.6606 F   0  0  0  0  0  0  0  0  0  0  0  0
   -5.3994    5.1399    1.8129 F   0  0  0  0  0  0  0  0  0  0  0  0
  1  4  2  0  0  0  0
  2  1  1  0  0  0  0
  3  2  1  0  0  0  0
  4  5  1  0  0  0  0
  5 12  1  0  0  0  0
  6  7  1  0  0  0  0
  6  5  2  0  0  0  0
  8 13  1  0  0  0  0
  8  7  1  0  0  0  0
  8 15  1  0  0  0  0
  9  6  1  0  0  0  0
 10  9  2  0  0  0  0
 10  1  1  0  0  0  0
 11 18  1  0  0  0  0
 14  8  1  0  0  0  0
 16  9  1  0  0  0  0
 17 10  1  0  0  0  0
 19 18  1  0  0  0  0
 19 21  1  0  0  0  0
 20 19  2  0  0  0  0
 21 23  1  0  0  0  0
 21 24  1  0  0  0  0
 22 21  1  0  0  0  0
M  RAD  3   2   2   3   3   4   2
M  END
