Coordinates from ORCA-job 4-MeOPhN2+_B3LYPG-6-31G_dp-d09-49-n800
 OpenBabel11261919463D

 17 17  0  0  0  0  0  0  0  0999 V2000
   -1.4880   -0.0793   -0.0337 C   0  0  0  0  0  0  0  0  0  0  0  0
   -2.8397   -0.1170    0.0668 N   0  0  0  0  0  0  0  0  0  0  0  0
   -3.9569   -0.1441    0.1501 N   0  0  0  0  0  0  0  0  0  0  0  0
   -0.8256    1.1722    0.0026 C   0  0  0  0  0  0  0  0  0  0  0  0
    0.5356    1.2166   -0.0972 C   0  0  0  0  0  0  0  0  0  0  0  0
    1.2717    0.0047   -0.2363 C   0  0  0  0  0  0  0  0  0  0  0  0
    2.5792    0.1512   -0.3238 O   0  0  0  0  0  0  0  0  0  0  0  0
    3.4520   -0.9910   -0.4669 C   0  0  0  0  0  0  0  0  0  0  0  0
    0.5988   -1.2465   -0.2724 C   0  0  0  0  0  0  0  0  0  0  0  0
   -0.7731   -1.2955   -0.1720 C   0  0  0  0  0  0  0  0  0  0  0  0
   -1.5863    2.3580    0.1421 H   0  0  0  0  0  0  0  0  0  0  0  0
    1.0810    2.1526   -0.0735 H   0  0  0  0  0  0  0  0  0  0  0  0
    4.4565   -0.5753   -0.5084 H   0  0  0  0  0  0  0  0  0  0  0  0
    3.2310   -1.5258   -1.3949 H   0  0  0  0  0  0  0  0  0  0  0  0
    3.3571   -1.6536    0.3979 H   0  0  0  0  0  0  0  0  0  0  0  0
    1.1541   -2.1696   -0.3785 H   0  0  0  0  0  0  0  0  0  0  0  0
   -1.3025   -2.2421   -0.1977 H   0  0  0  0  0  0  0  0  0  0  0  0
  1  4  1  0  0  0  0
  1  2  1  0  0  0  0
  2  3  1  0  0  0  0
  4 11  1  0  0  0  0
  5 12  1  0  0  0  0
  5  4  2  0  0  0  0
  6  5  1  0  0  0  0
  7  6  1  0  0  0  0
  8  7  1  0  0  0  0
  8 15  1  0  0  0  0
  9  6  2  0  0  0  0
  9 10  1  0  0  0  0
 10  1  2  0  0  0  0
 13  8  1  0  0  0  0
 14  8  1  0  0  0  0
 16  9  1  0  0  0  0
 17 10  1  0  0  0  0
M  RAD  2   2   2   3   3
M  END
