Coordinates from ORCA-job 4-MeOPhN2+_B3LYPG-6-31G_dp-d09-49-n800
 OpenBabel11261919463D

 17 16  0  0  0  0  0  0  0  0999 V2000
   -1.4804   -0.1031   -0.0359 C   0  0  0  0  0  0  0  0  0  0  0  0
   -2.8309   -0.1318    0.0656 N   0  0  0  0  0  0  0  0  0  0  0  0
   -3.9477   -0.1524    0.1497 N   0  0  0  0  0  0  0  0  0  0  0  0
   -0.8017    1.1322   -0.0020 C   0  0  0  0  0  0  0  0  0  0  0  0
    0.5512    1.2036   -0.0997 C   0  0  0  0  0  0  0  0  0  0  0  0
    1.2869   -0.0123   -0.2392 C   0  0  0  0  0  0  0  0  0  0  0  0
    2.5936    0.1335   -0.3266 O   0  0  0  0  0  0  0  0  0  0  0  0
    3.4674   -1.0089   -0.4689 C   0  0  0  0  0  0  0  0  0  0  0  0
    0.6123   -1.2640   -0.2752 C   0  0  0  0  0  0  0  0  0  0  0  0
   -0.7594   -1.3181   -0.1749 C   0  0  0  0  0  0  0  0  0  0  0  0
   -1.8134    2.6537    0.1800 H   0  0  0  0  0  0  0  0  0  0  0  0
    1.0931    2.1417   -0.0754 H   0  0  0  0  0  0  0  0  0  0  0  0
    4.4715   -0.5921   -0.5100 H   0  0  0  0  0  0  0  0  0  0  0  0
    3.2469   -1.5436   -1.3969 H   0  0  0  0  0  0  0  0  0  0  0  0
    3.3721   -1.6707    0.3963 H   0  0  0  0  0  0  0  0  0  0  0  0
    1.1695   -2.1859   -0.3815 H   0  0  0  0  0  0  0  0  0  0  0  0
   -1.2860   -2.2667   -0.2010 H   0  0  0  0  0  0  0  0  0  0  0  0
  1  4  1  0  0  0  0
  1  2  1  0  0  0  0
  2  3  1  0  0  0  0
  5 12  1  0  0  0  0
  5  4  2  0  0  0  0
  6  5  1  0  0  0  0
  7  6  1  0  0  0  0
  8  7  1  0  0  0  0
  8 15  1  0  0  0  0
  9  6  2  0  0  0  0
  9 10  1  0  0  0  0
 10  1  2  0  0  0  0
 13  8  1  0  0  0  0
 14  8  1  0  0  0  0
 16  9  1  0  0  0  0
 17 10  1  0  0  0  0
M  RAD  4   2   2   3   3   4   2  11   2
M  END
