Coordinates from ORCA-job 4-MeOPhN2+_B3LYPG-6-31G_dp-d09-49-n800
 OpenBabel11261919463D

 17 16  0  0  0  0  0  0  0  0999 V2000
   -1.4235   -0.2128   -0.0474 C   0  0  0  0  0  0  0  0  0  0  0  0
   -2.7771   -0.2513    0.0538 N   0  0  0  0  0  0  0  0  0  0  0  0
   -3.8937   -0.2814    0.1373 N   0  0  0  0  0  0  0  0  0  0  0  0
   -0.7427    1.0111   -0.0140 C   0  0  0  0  0  0  0  0  0  0  0  0
    0.5990    1.1125   -0.1087 C   0  0  0  0  0  0  0  0  0  0  0  0
    1.3502   -0.1016   -0.2497 C   0  0  0  0  0  0  0  0  0  0  0  0
    2.6548    0.0521   -0.3364 O   0  0  0  0  0  0  0  0  0  0  0  0
    3.5378   -1.0844   -0.4797 C   0  0  0  0  0  0  0  0  0  0  0  0
    0.6805   -1.3583   -0.2869 C   0  0  0  0  0  0  0  0  0  0  0  0
   -0.6894   -1.4256   -0.1878 C   0  0  0  0  0  0  0  0  0  0  0  0
   -2.8370    4.1822    0.3607 H   0  0  0  0  0  0  0  0  0  0  0  0
    1.1431    2.0535   -0.0844 H   0  0  0  0  0  0  0  0  0  0  0  0
    4.5387   -0.6598   -0.5197 H   0  0  0  0  0  0  0  0  0  0  0  0
    3.3210   -1.6191   -1.4085 H   0  0  0  0  0  0  0  0  0  0  0  0
    3.4463   -1.7474    0.3849 H   0  0  0  0  0  0  0  0  0  0  0  0
    1.2463   -2.2750   -0.3939 H   0  0  0  0  0  0  0  0  0  0  0  0
   -1.2093   -2.3794   -0.2151 H   0  0  0  0  0  0  0  0  0  0  0  0
  1  4  1  0  0  0  0
  1  2  1  0  0  0  0
  2  3  1  0  0  0  0
  5 12  1  0  0  0  0
  5  4  2  0  0  0  0
  6  5  1  0  0  0  0
  7  6  1  0  0  0  0
  8  7  1  0  0  0  0
  8 15  1  0  0  0  0
  9  6  2  0  0  0  0
  9 10  1  0  0  0  0
 10  1  2  0  0  0  0
 13  8  1  0  0  0  0
 14  8  1  0  0  0  0
 16  9  1  0  0  0  0
 17 10  1  0  0  0  0
M  RAD  4   2   2   3   3   4   2  11   2
M  END
