Coordinates from ORCA-job 4-MeOPhN2+_B3LYPG-6-31G_dp-d09-49-n800
 OpenBabel11261919463D

 17 16  0  0  0  0  0  0  0  0999 V2000
   -1.4277   -0.3521   -0.0566 C   0  0  0  0  0  0  0  0  0  0  0  0
   -2.7809   -0.4381    0.0408 N   0  0  0  0  0  0  0  0  0  0  0  0
   -3.8961   -0.5047    0.1213 N   0  0  0  0  0  0  0  0  0  0  0  0
   -0.7963    0.8981   -0.0177 C   0  0  0  0  0  0  0  0  0  0  0  0
    0.5440    1.0374   -0.1097 C   0  0  0  0  0  0  0  0  0  0  0  0
    1.3367   -0.1488   -0.2518 C   0  0  0  0  0  0  0  0  0  0  0  0
    2.6370    0.0485   -0.3353 O   0  0  0  0  0  0  0  0  0  0  0  0
    3.5559   -1.0580   -0.4796 C   0  0  0  0  0  0  0  0  0  0  0  0
    0.7110   -1.4278   -0.2935 C   0  0  0  0  0  0  0  0  0  0  0  0
   -0.6559   -1.5411   -0.1979 C   0  0  0  0  0  0  0  0  0  0  0  0
   -2.8934    5.2695    0.4396 H   0  0  0  0  0  0  0  0  0  0  0  0
    1.0602    1.9946   -0.0821 H   0  0  0  0  0  0  0  0  0  0  0  0
    4.5430   -0.6020   -0.5166 H   0  0  0  0  0  0  0  0  0  0  0  0
    3.3586   -1.5977   -1.4099 H   0  0  0  0  0  0  0  0  0  0  0  0
    3.4847   -1.7265    0.3828 H   0  0  0  0  0  0  0  0  0  0  0  0
    1.3081   -2.3243   -0.4008 H   0  0  0  0  0  0  0  0  0  0  0  0
   -1.1439   -2.5117   -0.2286 H   0  0  0  0  0  0  0  0  0  0  0  0
  1  4  1  0  0  0  0
  1  2  1  0  0  0  0
  2  3  1  0  0  0  0
  5 12  1  0  0  0  0
  5  4  2  0  0  0  0
  6  5  1  0  0  0  0
  7  6  1  0  0  0  0
  8  7  1  0  0  0  0
  8 15  1  0  0  0  0
  9  6  2  0  0  0  0
  9 10  1  0  0  0  0
 10  1  2  0  0  0  0
 13  8  1  0  0  0  0
 14  8  1  0  0  0  0
 16  9  1  0  0  0  0
 17 10  1  0  0  0  0
M  RAD  4   2   2   3   3   4   2  11   2
M  END
