Coordinates from ORCA-job 4-MeOPhN2+_B3LYPG-6-31G_dp-d09-49-n800
 OpenBabel11261919463D

 17 16  0  0  0  0  0  0  0  0999 V2000
   -1.4500   -0.1502   -0.0416 C   0  0  0  0  0  0  0  0  0  0  0  0
   -2.8014   -0.1719    0.0604 N   0  0  0  0  0  0  0  0  0  0  0  0
   -3.9179   -0.1874    0.1449 N   0  0  0  0  0  0  0  0  0  0  0  0
   -0.7532    1.0660   -0.0107 C   0  0  0  0  0  0  0  0  0  0  0  0
    0.5885    1.1636   -0.1057 C   0  0  0  0  0  0  0  0  0  0  0  0
    1.3273   -0.0575   -0.2456 C   0  0  0  0  0  0  0  0  0  0  0  0
    2.6325    0.0867   -0.3331 O   0  0  0  0  0  0  0  0  0  0  0  0
    3.5076   -1.0564   -0.4751 C   0  0  0  0  0  0  0  0  0  0  0  0
    0.6478   -1.3086   -0.2809 C   0  0  0  0  0  0  0  0  0  0  0  0
   -0.7231   -1.3661   -0.1810 C   0  0  0  0  0  0  0  0  0  0  0  0
   -2.4126    3.3867    0.2775 H   0  0  0  0  0  0  0  0  0  0  0  0
    1.1328    2.1027   -0.0818 H   0  0  0  0  0  0  0  0  0  0  0  0
    4.5112   -0.6384   -0.5160 H   0  0  0  0  0  0  0  0  0  0  0  0
    3.2866   -1.5906   -1.4031 H   0  0  0  0  0  0  0  0  0  0  0  0
    3.4116   -1.7172    0.3907 H   0  0  0  0  0  0  0  0  0  0  0  0
    1.2061   -2.2299   -0.3872 H   0  0  0  0  0  0  0  0  0  0  0  0
   -1.2490   -2.3161   -0.2071 H   0  0  0  0  0  0  0  0  0  0  0  0
  1  4  1  0  0  0  0
  1  2  1  0  0  0  0
  2  3  1  0  0  0  0
  5 12  1  0  0  0  0
  5  4  2  0  0  0  0
  6  5  1  0  0  0  0
  7  6  1  0  0  0  0
  8  7  1  0  0  0  0
  8 15  1  0  0  0  0
  9  6  2  0  0  0  0
  9 10  1  0  0  0  0
 10  1  2  0  0  0  0
 13  8  1  0  0  0  0
 14  8  1  0  0  0  0
 16  9  1  0  0  0  0
 17 10  1  0  0  0  0
M  RAD  4   2   2   3   3   4   2  11   2
M  END
