Coordinates from ORCA-job 4-MeOPhN2+_B3LYPG-6-31G_dp-d09-49-n800
 OpenBabel11261919463D

 17 16  0  0  0  0  0  0  0  0999 V2000
   -1.4833   -0.0950   -0.0351 C   0  0  0  0  0  0  0  0  0  0  0  0
   -2.8341   -0.1267    0.0661 N   0  0  0  0  0  0  0  0  0  0  0  0
   -3.9511   -0.1495    0.1500 N   0  0  0  0  0  0  0  0  0  0  0  0
   -0.8102    1.1459   -0.0004 C   0  0  0  0  0  0  0  0  0  0  0  0
    0.5456    1.2085   -0.0989 C   0  0  0  0  0  0  0  0  0  0  0  0
    1.2812   -0.0060   -0.2382 C   0  0  0  0  0  0  0  0  0  0  0  0
    2.5883    0.1400   -0.3257 O   0  0  0  0  0  0  0  0  0  0  0  0
    3.4617   -1.0024   -0.4681 C   0  0  0  0  0  0  0  0  0  0  0  0
    0.6074   -1.2577   -0.2743 C   0  0  0  0  0  0  0  0  0  0  0  0
   -0.7643   -1.3103   -0.1740 C   0  0  0  0  0  0  0  0  0  0  0  0
   -1.7306    2.5486    0.1666 H   0  0  0  0  0  0  0  0  0  0  0  0
    1.0885    2.1459   -0.0748 H   0  0  0  0  0  0  0  0  0  0  0  0
    4.4660   -0.5860   -0.5093 H   0  0  0  0  0  0  0  0  0  0  0  0
    3.2411   -1.5372   -1.3961 H   0  0  0  0  0  0  0  0  0  0  0  0
    3.3665   -1.6644    0.3970 H   0  0  0  0  0  0  0  0  0  0  0  0
    1.1641   -2.1799   -0.3805 H   0  0  0  0  0  0  0  0  0  0  0  0
   -1.2917   -2.2582   -0.1999 H   0  0  0  0  0  0  0  0  0  0  0  0
  1  4  1  0  0  0  0
  1  2  1  0  0  0  0
  2  3  1  0  0  0  0
  5 12  1  0  0  0  0
  5  4  2  0  0  0  0
  6  5  1  0  0  0  0
  7  6  1  0  0  0  0
  8  7  1  0  0  0  0
  8 15  1  0  0  0  0
  9  6  2  0  0  0  0
  9 10  1  0  0  0  0
 10  1  2  0  0  0  0
 13  8  1  0  0  0  0
 14  8  1  0  0  0  0
 16  9  1  0  0  0  0
 17 10  1  0  0  0  0
M  RAD  4   2   2   3   3   4   2  11   2
M  END
