Coordinates from ORCA-job 4-MeOPhN2+_B3LYPG-6-31G_dp-d09-49-n800
 OpenBabel11261919463D

 17 16  0  0  0  0  0  0  0  0999 V2000
   -1.4254   -0.2033   -0.0466 C   0  0  0  0  0  0  0  0  0  0  0  0
   -2.7788   -0.2390    0.0546 N   0  0  0  0  0  0  0  0  0  0  0  0
   -3.8953   -0.2669    0.1385 N   0  0  0  0  0  0  0  0  0  0  0  0
   -0.7416    1.0190   -0.0136 C   0  0  0  0  0  0  0  0  0  0  0  0
    0.6001    1.1188   -0.1085 C   0  0  0  0  0  0  0  0  0  0  0  0
    1.3491   -0.0968   -0.2493 C   0  0  0  0  0  0  0  0  0  0  0  0
    2.6538    0.0548   -0.3362 O   0  0  0  0  0  0  0  0  0  0  0  0
    3.5350   -1.0831   -0.4794 C   0  0  0  0  0  0  0  0  0  0  0  0
    0.6770   -1.3522   -0.2862 C   0  0  0  0  0  0  0  0  0  0  0  0
   -0.6930   -1.4171   -0.1869 C   0  0  0  0  0  0  0  0  0  0  0  0
   -2.8043    4.0853    0.3518 H   0  0  0  0  0  0  0  0  0  0  0  0
    1.1453    2.0591   -0.0842 H   0  0  0  0  0  0  0  0  0  0  0  0
    4.5366   -0.6601   -0.5196 H   0  0  0  0  0  0  0  0  0  0  0  0
    3.3172   -1.6176   -1.4081 H   0  0  0  0  0  0  0  0  0  0  0  0
    3.4425   -1.7458    0.3853 H   0  0  0  0  0  0  0  0  0  0  0  0
    1.2412   -2.2699   -0.3931 H   0  0  0  0  0  0  0  0  0  0  0  0
   -1.2145   -2.3700   -0.2141 H   0  0  0  0  0  0  0  0  0  0  0  0
  1  4  1  0  0  0  0
  1  2  1  0  0  0  0
  2  3  1  0  0  0  0
  5 12  1  0  0  0  0
  5  4  2  0  0  0  0
  6  5  1  0  0  0  0
  7  6  1  0  0  0  0
  8  7  1  0  0  0  0
  8 15  1  0  0  0  0
  9  6  2  0  0  0  0
  9 10  1  0  0  0  0
 10  1  2  0  0  0  0
 13  8  1  0  0  0  0
 14  8  1  0  0  0  0
 16  9  1  0  0  0  0
 17 10  1  0  0  0  0
M  RAD  4   2   2   3   3   4   2  11   2
M  END
