Coordinates from ORCA-job 4-MeOPhN2+_B3LYPG-6-31G_dp-d09-49-n800
 OpenBabel11261919463D

 17 17  0  0  0  0  0  0  0  0999 V2000
   -1.4925   -0.0634   -0.0321 C   0  0  0  0  0  0  0  0  0  0  0  0
   -2.8452   -0.1056    0.0679 N   0  0  0  0  0  0  0  0  0  0  0  0
   -3.9626   -0.1359    0.1507 N   0  0  0  0  0  0  0  0  0  0  0  0
   -0.8395    1.1976    0.0055 C   0  0  0  0  0  0  0  0  0  0  0  0
    0.5262    1.2246   -0.0958 C   0  0  0  0  0  0  0  0  0  0  0  0
    1.2631    0.0150   -0.2349 C   0  0  0  0  0  0  0  0  0  0  0  0
    2.5709    0.1620   -0.3225 O   0  0  0  0  0  0  0  0  0  0  0  0
    3.4432   -0.9802   -0.4655 C   0  0  0  0  0  0  0  0  0  0  0  0
    0.5905   -1.2353   -0.2709 C   0  0  0  0  0  0  0  0  0  0  0  0
   -0.7818   -1.2806   -0.1702 C   0  0  0  0  0  0  0  0  0  0  0  0
   -1.4504    2.1657    0.1187 H   0  0  0  0  0  0  0  0  0  0  0  0
    1.0740    2.1597   -0.0725 H   0  0  0  0  0  0  0  0  0  0  0  0
    4.4480   -0.5650   -0.5071 H   0  0  0  0  0  0  0  0  0  0  0  0
    3.2222   -1.5151   -1.3934 H   0  0  0  0  0  0  0  0  0  0  0  0
    3.3483   -1.6429    0.3992 H   0  0  0  0  0  0  0  0  0  0  0  0
    1.1440   -2.1596   -0.3770 H   0  0  0  0  0  0  0  0  0  0  0  0
   -1.3134   -2.2258   -0.1956 H   0  0  0  0  0  0  0  0  0  0  0  0
  1  4  1  0  0  0  0
  1  2  1  0  0  0  0
  2  3  1  0  0  0  0
  4 11  1  0  0  0  0
  5 12  1  0  0  0  0
  5  4  2  0  0  0  0
  6  5  1  0  0  0  0
  7  6  1  0  0  0  0
  8  7  1  0  0  0  0
  8 15  1  0  0  0  0
  9  6  2  0  0  0  0
  9 10  1  0  0  0  0
 10  1  2  0  0  0  0
 13  8  1  0  0  0  0
 14  8  1  0  0  0  0
 16  9  1  0  0  0  0
 17 10  1  0  0  0  0
M  RAD  2   2   2   3   3
M  END
