Coordinates from ORCA-job 4-MeOPhN2+_B3LYPG-6-31G_dp-d09-49-n800
 OpenBabel11261919463D

 17 17  0  0  0  0  0  0  0  0999 V2000
   -1.4935   -0.0601   -0.0318 C   0  0  0  0  0  0  0  0  0  0  0  0
   -2.8464   -0.1029    0.0682 N   0  0  0  0  0  0  0  0  0  0  0  0
   -3.9638   -0.1335    0.1511 N   0  0  0  0  0  0  0  0  0  0  0  0
   -0.8420    1.2024    0.0060 C   0  0  0  0  0  0  0  0  0  0  0  0
    0.5243    1.2264   -0.0957 C   0  0  0  0  0  0  0  0  0  0  0  0
    1.2614    0.0171   -0.2348 C   0  0  0  0  0  0  0  0  0  0  0  0
    2.5693    0.1643   -0.3224 O   0  0  0  0  0  0  0  0  0  0  0  0
    3.4415   -0.9780   -0.4652 C   0  0  0  0  0  0  0  0  0  0  0  0
    0.5887   -1.2329   -0.2707 C   0  0  0  0  0  0  0  0  0  0  0  0
   -0.7836   -1.2775   -0.1699 C   0  0  0  0  0  0  0  0  0  0  0  0
   -1.4227    2.1248    0.1140 H   0  0  0  0  0  0  0  0  0  0  0  0
    1.0724    2.1614   -0.0723 H   0  0  0  0  0  0  0  0  0  0  0  0
    4.4463   -0.5628   -0.5068 H   0  0  0  0  0  0  0  0  0  0  0  0
    3.2205   -1.5131   -1.3930 H   0  0  0  0  0  0  0  0  0  0  0  0
    3.3465   -1.6405    0.3997 H   0  0  0  0  0  0  0  0  0  0  0  0
    1.1419   -2.1574   -0.3768 H   0  0  0  0  0  0  0  0  0  0  0  0
   -1.3156   -2.2224   -0.1953 H   0  0  0  0  0  0  0  0  0  0  0  0
  1  4  1  0  0  0  0
  1  2  1  0  0  0  0
  2  3  1  0  0  0  0
  4 11  1  0  0  0  0
  5 12  1  0  0  0  0
  5  4  2  0  0  0  0
  6  5  1  0  0  0  0
  7  6  1  0  0  0  0
  8  7  1  0  0  0  0
  8 15  1  0  0  0  0
  9  6  2  0  0  0  0
  9 10  1  0  0  0  0
 10  1  2  0  0  0  0
 13  8  1  0  0  0  0
 14  8  1  0  0  0  0
 16  9  1  0  0  0  0
 17 10  1  0  0  0  0
M  RAD  2   2   2   3   3
M  END
