Coordinates from ORCA-job 4-MeOPhN2+_B3LYPG-6-31G_dp-d09-49-n800
 OpenBabel11261919463D

 17 17  0  0  0  0  0  0  0  0999 V2000
   -1.4887   -0.0769   -0.0334 C   0  0  0  0  0  0  0  0  0  0  0  0
   -2.8405   -0.1154    0.0669 N   0  0  0  0  0  0  0  0  0  0  0  0
   -3.9578   -0.1431    0.1501 N   0  0  0  0  0  0  0  0  0  0  0  0
   -0.8278    1.1762    0.0031 C   0  0  0  0  0  0  0  0  0  0  0  0
    0.5341    1.2178   -0.0969 C   0  0  0  0  0  0  0  0  0  0  0  0
    1.2703    0.0062   -0.2360 C   0  0  0  0  0  0  0  0  0  0  0  0
    2.5779    0.1528   -0.3235 O   0  0  0  0  0  0  0  0  0  0  0  0
    3.4506   -0.9894   -0.4667 C   0  0  0  0  0  0  0  0  0  0  0  0
    0.5976   -1.2448   -0.2721 C   0  0  0  0  0  0  0  0  0  0  0  0
   -0.7744   -1.2933   -0.1717 C   0  0  0  0  0  0  0  0  0  0  0  0
   -1.5654    2.3294    0.1385 H   0  0  0  0  0  0  0  0  0  0  0  0
    1.0800    2.1536   -0.0733 H   0  0  0  0  0  0  0  0  0  0  0  0
    4.4552   -0.5737   -0.5082 H   0  0  0  0  0  0  0  0  0  0  0  0
    3.2296   -1.5241   -1.3947 H   0  0  0  0  0  0  0  0  0  0  0  0
    3.3558   -1.6520    0.3981 H   0  0  0  0  0  0  0  0  0  0  0  0
    1.1526   -2.1681   -0.3782 H   0  0  0  0  0  0  0  0  0  0  0  0
   -1.3041   -2.2397   -0.1974 H   0  0  0  0  0  0  0  0  0  0  0  0
  1  4  1  0  0  0  0
  1  2  1  0  0  0  0
  2  3  1  0  0  0  0
  4 11  1  0  0  0  0
  5 12  1  0  0  0  0
  5  4  2  0  0  0  0
  6  5  1  0  0  0  0
  7  6  1  0  0  0  0
  8  7  1  0  0  0  0
  8 15  1  0  0  0  0
  9  6  2  0  0  0  0
  9 10  1  0  0  0  0
 10  1  2  0  0  0  0
 13  8  1  0  0  0  0
 14  8  1  0  0  0  0
 16  9  1  0  0  0  0
 17 10  1  0  0  0  0
M  RAD  2   2   2   3   3
M  END
