Coordinates from ORCA-job 4-MeOPhN2+_B3LYPG-6-31G_dp-d09-49-n800
 OpenBabel11261919463D

 17 16  0  0  0  0  0  0  0  0999 V2000
   -1.4250   -0.2049   -0.0467 C   0  0  0  0  0  0  0  0  0  0  0  0
   -2.7784   -0.2409    0.0546 N   0  0  0  0  0  0  0  0  0  0  0  0
   -3.8950   -0.2691    0.1382 N   0  0  0  0  0  0  0  0  0  0  0  0
   -0.7415    1.0175   -0.0137 C   0  0  0  0  0  0  0  0  0  0  0  0
    0.6001    1.1177   -0.1085 C   0  0  0  0  0  0  0  0  0  0  0  0
    1.3494   -0.0976   -0.2494 C   0  0  0  0  0  0  0  0  0  0  0  0
    2.6541    0.0542   -0.3362 O   0  0  0  0  0  0  0  0  0  0  0  0
    3.5356   -1.0836   -0.4795 C   0  0  0  0  0  0  0  0  0  0  0  0
    0.6777   -1.3532   -0.2863 C   0  0  0  0  0  0  0  0  0  0  0  0
   -0.6923   -1.4185   -0.1870 C   0  0  0  0  0  0  0  0  0  0  0  0
   -2.8116    4.1028    0.3535 H   0  0  0  0  0  0  0  0  0  0  0  0
    1.1450    2.0582   -0.0843 H   0  0  0  0  0  0  0  0  0  0  0  0
    4.5370   -0.6603   -0.5197 H   0  0  0  0  0  0  0  0  0  0  0  0
    3.3179   -1.6180   -1.4082 H   0  0  0  0  0  0  0  0  0  0  0  0
    3.4432   -1.7463    0.3852 H   0  0  0  0  0  0  0  0  0  0  0  0
    1.2421   -2.2708   -0.3933 H   0  0  0  0  0  0  0  0  0  0  0  0
   -1.2135   -2.3717   -0.2142 H   0  0  0  0  0  0  0  0  0  0  0  0
  1  4  1  0  0  0  0
  1  2  1  0  0  0  0
  2  3  1  0  0  0  0
  5 12  1  0  0  0  0
  5  4  2  0  0  0  0
  6  5  1  0  0  0  0
  7  6  1  0  0  0  0
  8  7  1  0  0  0  0
  8 15  1  0  0  0  0
  9  6  2  0  0  0  0
  9 10  1  0  0  0  0
 10  1  2  0  0  0  0
 13  8  1  0  0  0  0
 14  8  1  0  0  0  0
 16  9  1  0  0  0  0
 17 10  1  0  0  0  0
M  RAD  4   2   2   3   3   4   2  11   2
M  END
