Coordinates from ORCA-job 4-MeOPhN2+_B3LYPG-6-31G_dp-d09-49-n800
 OpenBabel11261919463D

 17 16  0  0  0  0  0  0  0  0999 V2000
   -1.4482   -0.1523   -0.0420 C   0  0  0  0  0  0  0  0  0  0  0  0
   -2.7997   -0.1743    0.0600 N   0  0  0  0  0  0  0  0  0  0  0  0
   -3.9162   -0.1904    0.1450 N   0  0  0  0  0  0  0  0  0  0  0  0
   -0.7514    1.0637   -0.0110 C   0  0  0  0  0  0  0  0  0  0  0  0
    0.5902    1.1614   -0.1060 C   0  0  0  0  0  0  0  0  0  0  0  0
    1.3292   -0.0598   -0.2459 C   0  0  0  0  0  0  0  0  0  0  0  0
    2.6343    0.0844   -0.3333 O   0  0  0  0  0  0  0  0  0  0  0  0
    3.5095   -1.0587   -0.4753 C   0  0  0  0  0  0  0  0  0  0  0  0
    0.6496   -1.3108   -0.2813 C   0  0  0  0  0  0  0  0  0  0  0  0
   -0.7212   -1.3683   -0.1813 C   0  0  0  0  0  0  0  0  0  0  0  0
   -2.4416    3.4237    0.2822 H   0  0  0  0  0  0  0  0  0  0  0  0
    1.1348    2.1005   -0.0821 H   0  0  0  0  0  0  0  0  0  0  0  0
    4.5131   -0.6408   -0.5162 H   0  0  0  0  0  0  0  0  0  0  0  0
    3.2884   -1.5928   -1.4034 H   0  0  0  0  0  0  0  0  0  0  0  0
    3.4134   -1.7195    0.3904 H   0  0  0  0  0  0  0  0  0  0  0  0
    1.2079   -2.2322   -0.3875 H   0  0  0  0  0  0  0  0  0  0  0  0
   -1.2472   -2.3184   -0.2075 H   0  0  0  0  0  0  0  0  0  0  0  0
  1  4  1  0  0  0  0
  1  2  1  0  0  0  0
  2  3  1  0  0  0  0
  5 12  1  0  0  0  0
  5  4  2  0  0  0  0
  6  5  1  0  0  0  0
  7  6  1  0  0  0  0
  8  7  1  0  0  0  0
  8 15  1  0  0  0  0
  9  6  2  0  0  0  0
  9 10  1  0  0  0  0
 10  1  2  0  0  0  0
 13  8  1  0  0  0  0
 14  8  1  0  0  0  0
 16  9  1  0  0  0  0
 17 10  1  0  0  0  0
M  RAD  4   2   2   3   3   4   2  11   2
M  END
