Coordinates from ORCA-job 4-MeOPhN2+_B3LYPG-6-31G_dp-d09-49-n800
 OpenBabel11261919463D

 17 16  0  0  0  0  0  0  0  0999 V2000
   -1.4650   -0.1316   -0.0390 C   0  0  0  0  0  0  0  0  0  0  0  0
   -2.8156   -0.1531    0.0629 N   0  0  0  0  0  0  0  0  0  0  0  0
   -3.9321   -0.1681    0.1474 N   0  0  0  0  0  0  0  0  0  0  0  0
   -0.7716    1.0887   -0.0074 C   0  0  0  0  0  0  0  0  0  0  0  0
    0.5729    1.1820   -0.1031 C   0  0  0  0  0  0  0  0  0  0  0  0
    1.3101   -0.0379   -0.2430 C   0  0  0  0  0  0  0  0  0  0  0  0
    2.6156    0.1070   -0.3304 O   0  0  0  0  0  0  0  0  0  0  0  0
    3.4907   -1.0357   -0.4724 C   0  0  0  0  0  0  0  0  0  0  0  0
    0.6323   -1.2892   -0.2785 C   0  0  0  0  0  0  0  0  0  0  0  0
   -0.7390   -1.3464   -0.1784 C   0  0  0  0  0  0  0  0  0  0  0  0
   -2.1528    3.0694    0.2352 H   0  0  0  0  0  0  0  0  0  0  0  0
    1.1145    2.1215   -0.0787 H   0  0  0  0  0  0  0  0  0  0  0  0
    4.4943   -0.6178   -0.5133 H   0  0  0  0  0  0  0  0  0  0  0  0
    3.2700   -1.5701   -1.4004 H   0  0  0  0  0  0  0  0  0  0  0  0
    3.3949   -1.6967    0.3933 H   0  0  0  0  0  0  0  0  0  0  0  0
    1.1905   -2.2105   -0.3849 H   0  0  0  0  0  0  0  0  0  0  0  0
   -1.2645   -2.2963   -0.2046 H   0  0  0  0  0  0  0  0  0  0  0  0
  1  4  1  0  0  0  0
  1  2  1  0  0  0  0
  2  3  1  0  0  0  0
  5 12  1  0  0  0  0
  5  4  2  0  0  0  0
  6  5  1  0  0  0  0
  7  6  1  0  0  0  0
  8  7  1  0  0  0  0
  8 15  1  0  0  0  0
  9  6  2  0  0  0  0
  9 10  1  0  0  0  0
 10  1  2  0  0  0  0
 13  8  1  0  0  0  0
 14  8  1  0  0  0  0
 16  9  1  0  0  0  0
 17 10  1  0  0  0  0
M  RAD  4   2   2   3   3   4   2  11   2
M  END
