Coordinates from ORCA-job 4-MeOPhN2+_B3LYPG-6-31G_dp-d09-49-n800
 OpenBabel11261919463D

 17 16  0  0  0  0  0  0  0  0999 V2000
   -1.4814   -0.1005   -0.0357 C   0  0  0  0  0  0  0  0  0  0  0  0
   -2.8320   -0.1301    0.0658 N   0  0  0  0  0  0  0  0  0  0  0  0
   -3.9489   -0.1514    0.1498 N   0  0  0  0  0  0  0  0  0  0  0  0
   -0.8045    1.1367   -0.0015 C   0  0  0  0  0  0  0  0  0  0  0  0
    0.5493    1.2053   -0.0994 C   0  0  0  0  0  0  0  0  0  0  0  0
    1.2850   -0.0102   -0.2389 C   0  0  0  0  0  0  0  0  0  0  0  0
    2.5918    0.1357   -0.3263 O   0  0  0  0  0  0  0  0  0  0  0  0
    3.4655   -1.0067   -0.4686 C   0  0  0  0  0  0  0  0  0  0  0  0
    0.6107   -1.2619   -0.2749 C   0  0  0  0  0  0  0  0  0  0  0  0
   -0.7610   -1.3155   -0.1746 C   0  0  0  0  0  0  0  0  0  0  0  0
   -1.7856    2.6187    0.1755 H   0  0  0  0  0  0  0  0  0  0  0  0
    1.0915    2.1431   -0.0752 H   0  0  0  0  0  0  0  0  0  0  0  0
    4.4697   -0.5901   -0.5097 H   0  0  0  0  0  0  0  0  0  0  0  0
    3.2450   -1.5415   -1.3966 H   0  0  0  0  0  0  0  0  0  0  0  0
    3.3702   -1.6686    0.3966 H   0  0  0  0  0  0  0  0  0  0  0  0
    1.1677   -2.1839   -0.3812 H   0  0  0  0  0  0  0  0  0  0  0  0
   -1.2879   -2.2639   -0.2006 H   0  0  0  0  0  0  0  0  0  0  0  0
  1  4  1  0  0  0  0
  1  2  1  0  0  0  0
  2  3  1  0  0  0  0
  5 12  1  0  0  0  0
  5  4  2  0  0  0  0
  6  5  1  0  0  0  0
  7  6  1  0  0  0  0
  8  7  1  0  0  0  0
  8 15  1  0  0  0  0
  9  6  2  0  0  0  0
  9 10  1  0  0  0  0
 10  1  2  0  0  0  0
 13  8  1  0  0  0  0
 14  8  1  0  0  0  0
 16  9  1  0  0  0  0
 17 10  1  0  0  0  0
M  RAD  4   2   2   3   3   4   2  11   2
M  END
