Coordinates from ORCA-job 4-MeOPhN2+_B3LYPG-6-31G_dp-d09-49-n800
 OpenBabel11261919463D

 17 16  0  0  0  0  0  0  0  0999 V2000
   -1.4496   -0.1504   -0.0416 C   0  0  0  0  0  0  0  0  0  0  0  0
   -2.8011   -0.1723    0.0603 N   0  0  0  0  0  0  0  0  0  0  0  0
   -3.9176   -0.1882    0.1447 N   0  0  0  0  0  0  0  0  0  0  0  0
   -0.7528    1.0655   -0.0108 C   0  0  0  0  0  0  0  0  0  0  0  0
    0.5890    1.1632   -0.1058 C   0  0  0  0  0  0  0  0  0  0  0  0
    1.3278   -0.0579   -0.2457 C   0  0  0  0  0  0  0  0  0  0  0  0
    2.6329    0.0862   -0.3331 O   0  0  0  0  0  0  0  0  0  0  0  0
    3.5080   -1.0569   -0.4751 C   0  0  0  0  0  0  0  0  0  0  0  0
    0.6482   -1.3090   -0.2810 C   0  0  0  0  0  0  0  0  0  0  0  0
   -0.7227   -1.3664   -0.1810 C   0  0  0  0  0  0  0  0  0  0  0  0
   -2.4186    3.3938    0.2785 H   0  0  0  0  0  0  0  0  0  0  0  0
    1.1333    2.1023   -0.0819 H   0  0  0  0  0  0  0  0  0  0  0  0
    4.5117   -0.6390   -0.5161 H   0  0  0  0  0  0  0  0  0  0  0  0
    3.2870   -1.5911   -1.4032 H   0  0  0  0  0  0  0  0  0  0  0  0
    3.4119   -1.7177    0.3906 H   0  0  0  0  0  0  0  0  0  0  0  0
    1.2064   -2.2303   -0.3872 H   0  0  0  0  0  0  0  0  0  0  0  0
   -1.2487   -2.3164   -0.2071 H   0  0  0  0  0  0  0  0  0  0  0  0
  1  4  1  0  0  0  0
  1  2  1  0  0  0  0
  2  3  1  0  0  0  0
  5 12  1  0  0  0  0
  5  4  2  0  0  0  0
  6  5  1  0  0  0  0
  7  6  1  0  0  0  0
  8  7  1  0  0  0  0
  8 15  1  0  0  0  0
  9  6  2  0  0  0  0
  9 10  1  0  0  0  0
 10  1  2  0  0  0  0
 13  8  1  0  0  0  0
 14  8  1  0  0  0  0
 16  9  1  0  0  0  0
 17 10  1  0  0  0  0
M  RAD  4   2   2   3   3   4   2  11   2
M  END
