Coordinates from ORCA-job 4-MeOPhN2+_B3LYPG-6-31G_dp-d09-49-n800
 OpenBabel11261919463D

 17 16  0  0  0  0  0  0  0  0999 V2000
   -1.4242   -0.2090   -0.0471 C   0  0  0  0  0  0  0  0  0  0  0  0
   -2.7777   -0.2464    0.0542 N   0  0  0  0  0  0  0  0  0  0  0  0
   -3.8942   -0.2756    0.1377 N   0  0  0  0  0  0  0  0  0  0  0  0
   -0.7421    1.0142   -0.0138 C   0  0  0  0  0  0  0  0  0  0  0  0
    0.5996    1.1150   -0.1086 C   0  0  0  0  0  0  0  0  0  0  0  0
    1.3499   -0.0997   -0.2496 C   0  0  0  0  0  0  0  0  0  0  0  0
    2.6546    0.0530   -0.3363 O   0  0  0  0  0  0  0  0  0  0  0  0
    3.5368   -1.0841   -0.4796 C   0  0  0  0  0  0  0  0  0  0  0  0
    0.6792   -1.3559   -0.2866 C   0  0  0  0  0  0  0  0  0  0  0  0
   -0.6907   -1.4222   -0.1874 C   0  0  0  0  0  0  0  0  0  0  0  0
   -2.8254    4.1447    0.3573 H   0  0  0  0  0  0  0  0  0  0  0  0
    1.1441    2.0557   -0.0843 H   0  0  0  0  0  0  0  0  0  0  0  0
    4.5380   -0.6601   -0.5197 H   0  0  0  0  0  0  0  0  0  0  0  0
    3.3195   -1.6186   -1.4083 H   0  0  0  0  0  0  0  0  0  0  0  0
    3.4448   -1.7469    0.3850 H   0  0  0  0  0  0  0  0  0  0  0  0
    1.2443   -2.2730   -0.3936 H   0  0  0  0  0  0  0  0  0  0  0  0
   -1.2113   -2.3757   -0.2147 H   0  0  0  0  0  0  0  0  0  0  0  0
  1  4  1  0  0  0  0
  1  2  1  0  0  0  0
  2  3  1  0  0  0  0
  5 12  1  0  0  0  0
  5  4  2  0  0  0  0
  6  5  1  0  0  0  0
  7  6  1  0  0  0  0
  8  7  1  0  0  0  0
  8 15  1  0  0  0  0
  9  6  2  0  0  0  0
  9 10  1  0  0  0  0
 10  1  2  0  0  0  0
 13  8  1  0  0  0  0
 14  8  1  0  0  0  0
 16  9  1  0  0  0  0
 17 10  1  0  0  0  0
M  RAD  4   2   2   3   3   4   2  11   2
M  END
