Coordinates from ORCA-job 4-MeOPhN2+_B3LYPG-6-31G_dp-d09-49-n800
 OpenBabel11261919463D

 17 17  0  0  0  0  0  0  0  0999 V2000
   -1.4960   -0.0521   -0.0311 C   0  0  0  0  0  0  0  0  0  0  0  0
   -2.8494   -0.0955    0.0693 N   0  0  0  0  0  0  0  0  0  0  0  0
   -3.9669   -0.1265    0.1523 N   0  0  0  0  0  0  0  0  0  0  0  0
   -0.8478    1.2132    0.0072 C   0  0  0  0  0  0  0  0  0  0  0  0
    0.5196    1.2310   -0.0954 C   0  0  0  0  0  0  0  0  0  0  0  0
    1.2573    0.0226   -0.2347 C   0  0  0  0  0  0  0  0  0  0  0  0
    2.5652    0.1699   -0.3222 O   0  0  0  0  0  0  0  0  0  0  0  0
    3.4373   -0.9725   -0.4642 C   0  0  0  0  0  0  0  0  0  0  0  0
    0.5844   -1.2269   -0.2704 C   0  0  0  0  0  0  0  0  0  0  0  0
   -0.7881   -1.2700   -0.1693 C   0  0  0  0  0  0  0  0  0  0  0  0
   -1.3552    2.0227    0.1026 H   0  0  0  0  0  0  0  0  0  0  0  0
    1.0680    2.1662   -0.0719 H   0  0  0  0  0  0  0  0  0  0  0  0
    4.4422   -0.5576   -0.5058 H   0  0  0  0  0  0  0  0  0  0  0  0
    3.2165   -1.5081   -1.3918 H   0  0  0  0  0  0  0  0  0  0  0  0
    3.3420   -1.6346    0.4010 H   0  0  0  0  0  0  0  0  0  0  0  0
    1.1368   -2.1519   -0.3766 H   0  0  0  0  0  0  0  0  0  0  0  0
   -1.3211   -2.2143   -0.1946 H   0  0  0  0  0  0  0  0  0  0  0  0
  1  4  1  0  0  0  0
  1  2  1  0  0  0  0
  2  3  1  0  0  0  0
  4 11  1  0  0  0  0
  5 12  1  0  0  0  0
  5  4  2  0  0  0  0
  6  5  1  0  0  0  0
  7  6  1  0  0  0  0
  8  7  1  0  0  0  0
  8 15  1  0  0  0  0
  9  6  2  0  0  0  0
  9 10  1  0  0  0  0
 10  1  2  0  0  0  0
 13  8  1  0  0  0  0
 14  8  1  0  0  0  0
 16  9  1  0  0  0  0
 17 10  1  0  0  0  0
M  RAD  2   2   2   3   3
M  END
