Coordinates from ORCA-job 4-MeOPhN2+_B3LYPG-6-31G_dp-d09-49-n800
 OpenBabel11261919463D

 17 16  0  0  0  0  0  0  0  0999 V2000
   -1.4842   -0.0922   -0.0349 C   0  0  0  0  0  0  0  0  0  0  0  0
   -2.8351   -0.1250    0.0662 N   0  0  0  0  0  0  0  0  0  0  0  0
   -3.9522   -0.1486    0.1501 N   0  0  0  0  0  0  0  0  0  0  0  0
   -0.8131    1.1507    0.0001 C   0  0  0  0  0  0  0  0  0  0  0  0
    0.5437    1.2100   -0.0986 C   0  0  0  0  0  0  0  0  0  0  0  0
    1.2794   -0.0040   -0.2379 C   0  0  0  0  0  0  0  0  0  0  0  0
    2.5866    0.1421   -0.3253 O   0  0  0  0  0  0  0  0  0  0  0  0
    3.4598   -1.0003   -0.4678 C   0  0  0  0  0  0  0  0  0  0  0  0
    0.6058   -1.2556   -0.2739 C   0  0  0  0  0  0  0  0  0  0  0  0
   -0.7660   -1.3076   -0.1736 C   0  0  0  0  0  0  0  0  0  0  0  0
   -1.7034    2.5135    0.1620 H   0  0  0  0  0  0  0  0  0  0  0  0
    1.0870    2.1471   -0.0746 H   0  0  0  0  0  0  0  0  0  0  0  0
    4.4642   -0.5840   -0.5091 H   0  0  0  0  0  0  0  0  0  0  0  0
    3.2392   -1.5351   -1.3958 H   0  0  0  0  0  0  0  0  0  0  0  0
    3.3647   -1.6624    0.3972 H   0  0  0  0  0  0  0  0  0  0  0  0
    1.1623   -2.1780   -0.3802 H   0  0  0  0  0  0  0  0  0  0  0  0
   -1.2937   -2.2553   -0.1995 H   0  0  0  0  0  0  0  0  0  0  0  0
  1  4  1  0  0  0  0
  1  2  1  0  0  0  0
  2  3  1  0  0  0  0
  5 12  1  0  0  0  0
  5  4  2  0  0  0  0
  6  5  1  0  0  0  0
  7  6  1  0  0  0  0
  8  7  1  0  0  0  0
  8 15  1  0  0  0  0
  9  6  2  0  0  0  0
  9 10  1  0  0  0  0
 10  1  2  0  0  0  0
 13  8  1  0  0  0  0
 14  8  1  0  0  0  0
 16  9  1  0  0  0  0
 17 10  1  0  0  0  0
M  RAD  4   2   2   3   3   4   2  11   2
M  END
