Coordinates from ORCA-job 4-MeOPhN2+_B3LYPG-6-31G_dp-d09-49-n800
 OpenBabel11261919463D

 17 16  0  0  0  0  0  0  0  0999 V2000
   -1.4324   -0.1808   -0.0448 C   0  0  0  0  0  0  0  0  0  0  0  0
   -2.7852   -0.2095    0.0568 N   0  0  0  0  0  0  0  0  0  0  0  0
   -3.9018   -0.2315    0.1409 N   0  0  0  0  0  0  0  0  0  0  0  0
   -0.7410    1.0372   -0.0130 C   0  0  0  0  0  0  0  0  0  0  0  0
    0.6002    1.1360   -0.1079 C   0  0  0  0  0  0  0  0  0  0  0  0
    1.3441   -0.0830   -0.2483 C   0  0  0  0  0  0  0  0  0  0  0  0
    2.6490    0.0639   -0.3355 O   0  0  0  0  0  0  0  0  0  0  0  0
    3.5266   -1.0772   -0.4782 C   0  0  0  0  0  0  0  0  0  0  0  0
    0.6672   -1.3358   -0.2842 C   0  0  0  0  0  0  0  0  0  0  0  0
   -0.7031   -1.3964   -0.1846 C   0  0  0  0  0  0  0  0  0  0  0  0
   -2.6938    3.8280    0.3275 H   0  0  0  0  0  0  0  0  0  0  0  0
    1.1463    2.0753   -0.0841 H   0  0  0  0  0  0  0  0  0  0  0  0
    4.5294   -0.6573   -0.5188 H   0  0  0  0  0  0  0  0  0  0  0  0
    3.3068   -1.6113   -1.4065 H   0  0  0  0  0  0  0  0  0  0  0  0
    3.4319   -1.7388    0.3871 H   0  0  0  0  0  0  0  0  0  0  0  0
    1.2280   -2.2556   -0.3908 H   0  0  0  0  0  0  0  0  0  0  0  0
   -1.2273   -2.3478   -0.2112 H   0  0  0  0  0  0  0  0  0  0  0  0
  1  4  1  0  0  0  0
  1  2  1  0  0  0  0
  2  3  1  0  0  0  0
  5 12  1  0  0  0  0
  5  4  2  0  0  0  0
  6  5  1  0  0  0  0
  7  6  1  0  0  0  0
  8  7  1  0  0  0  0
  8 15  1  0  0  0  0
  9  6  2  0  0  0  0
  9 10  1  0  0  0  0
 10  1  2  0  0  0  0
 13  8  1  0  0  0  0
 14  8  1  0  0  0  0
 16  9  1  0  0  0  0
 17 10  1  0  0  0  0
M  RAD  4   2   2   3   3   4   2  11   2
M  END
