Coordinates from ORCA-job 4-MeOPhN2+_B3LYPG-6-31G_dp-d09-49-n800
 OpenBabel11261919463D

 17 16  0  0  0  0  0  0  0  0999 V2000
   -1.4413   -0.1636   -0.0432 C   0  0  0  0  0  0  0  0  0  0  0  0
   -2.7933   -0.1878    0.0587 N   0  0  0  0  0  0  0  0  0  0  0  0
   -3.9099   -0.2059    0.1430 N   0  0  0  0  0  0  0  0  0  0  0  0
   -0.7461    1.0526   -0.0120 C   0  0  0  0  0  0  0  0  0  0  0  0
    0.5953    1.1508   -0.1070 C   0  0  0  0  0  0  0  0  0  0  0  0
    1.3360   -0.0697   -0.2470 C   0  0  0  0  0  0  0  0  0  0  0  0
    2.6410    0.0752   -0.3343 O   0  0  0  0  0  0  0  0  0  0  0  0
    3.5171   -1.0672   -0.4766 C   0  0  0  0  0  0  0  0  0  0  0  0
    0.6571   -1.3212   -0.2824 C   0  0  0  0  0  0  0  0  0  0  0  0
   -0.7135   -1.3796   -0.1826 C   0  0  0  0  0  0  0  0  0  0  0  0
   -2.5538    3.5919    0.3019 H   0  0  0  0  0  0  0  0  0  0  0  0
    1.1408    2.0899   -0.0832 H   0  0  0  0  0  0  0  0  0  0  0  0
    4.5204   -0.6485   -0.5174 H   0  0  0  0  0  0  0  0  0  0  0  0
    3.2964   -1.6012   -1.4048 H   0  0  0  0  0  0  0  0  0  0  0  0
    3.4215   -1.7282    0.3890 H   0  0  0  0  0  0  0  0  0  0  0  0
    1.2162   -2.2421   -0.3888 H   0  0  0  0  0  0  0  0  0  0  0  0
   -1.2390   -2.3301   -0.2088 H   0  0  0  0  0  0  0  0  0  0  0  0
  1  4  1  0  0  0  0
  1  2  1  0  0  0  0
  2  3  1  0  0  0  0
  5 12  1  0  0  0  0
  5  4  2  0  0  0  0
  6  5  1  0  0  0  0
  7  6  1  0  0  0  0
  8  7  1  0  0  0  0
  8 15  1  0  0  0  0
  9  6  2  0  0  0  0
  9 10  1  0  0  0  0
 10  1  2  0  0  0  0
 13  8  1  0  0  0  0
 14  8  1  0  0  0  0
 16  9  1  0  0  0  0
 17 10  1  0  0  0  0
M  RAD  4   2   2   3   3   4   2  11   2
M  END
