Coordinates from ORCA-job 4-MeOPhN2+_B3LYPG-6-31G_dp-d09-49-n800
 OpenBabel11261919463D

 17 16  0  0  0  0  0  0  0  0999 V2000
   -1.4365   -0.1717   -0.0440 C   0  0  0  0  0  0  0  0  0  0  0  0
   -2.7890   -0.1980    0.0578 N   0  0  0  0  0  0  0  0  0  0  0  0
   -3.9055   -0.2178    0.1420 N   0  0  0  0  0  0  0  0  0  0  0  0
   -0.7432    1.0455   -0.0125 C   0  0  0  0  0  0  0  0  0  0  0  0
    0.5981    1.1433   -0.1075 C   0  0  0  0  0  0  0  0  0  0  0  0
    1.3403   -0.0765   -0.2476 C   0  0  0  0  0  0  0  0  0  0  0  0
    2.6452    0.0694   -0.3349 O   0  0  0  0  0  0  0  0  0  0  0  0
    3.5220   -1.0724   -0.4774 C   0  0  0  0  0  0  0  0  0  0  0  0
    0.6622   -1.3286   -0.2833 C   0  0  0  0  0  0  0  0  0  0  0  0
   -0.7083   -1.3876   -0.1836 C   0  0  0  0  0  0  0  0  0  0  0  0
   -2.6266    3.7084    0.3148 H   0  0  0  0  0  0  0  0  0  0  0  0
    1.1442    2.0823   -0.0837 H   0  0  0  0  0  0  0  0  0  0  0  0
    4.5251   -0.6532   -0.5182 H   0  0  0  0  0  0  0  0  0  0  0  0
    3.3017   -1.6065   -1.4057 H   0  0  0  0  0  0  0  0  0  0  0  0
    3.4268   -1.7338    0.3880 H   0  0  0  0  0  0  0  0  0  0  0  0
    1.2220   -2.2490   -0.3898 H   0  0  0  0  0  0  0  0  0  0  0  0
   -1.2335   -2.3384   -0.2099 H   0  0  0  0  0  0  0  0  0  0  0  0
  1  4  1  0  0  0  0
  1  2  1  0  0  0  0
  2  3  1  0  0  0  0
  5 12  1  0  0  0  0
  5  4  2  0  0  0  0
  6  5  1  0  0  0  0
  7  6  1  0  0  0  0
  8  7  1  0  0  0  0
  8 15  1  0  0  0  0
  9  6  2  0  0  0  0
  9 10  1  0  0  0  0
 10  1  2  0  0  0  0
 13  8  1  0  0  0  0
 14  8  1  0  0  0  0
 16  9  1  0  0  0  0
 17 10  1  0  0  0  0
M  RAD  4   2   2   3   3   4   2  11   2
M  END
