Coordinates from ORCA-job 4-MeOPhN2+_B3LYPG-6-31G_dp-d09-49-n800
 OpenBabel11261919463D

 17 16  0  0  0  0  0  0  0  0999 V2000
   -1.4403   -0.1652   -0.0433 C   0  0  0  0  0  0  0  0  0  0  0  0
   -2.7924   -0.1898    0.0585 N   0  0  0  0  0  0  0  0  0  0  0  0
   -3.9090   -0.2082    0.1428 N   0  0  0  0  0  0  0  0  0  0  0  0
   -0.7454    1.0512   -0.0121 C   0  0  0  0  0  0  0  0  0  0  0  0
    0.5959    1.1493   -0.1071 C   0  0  0  0  0  0  0  0  0  0  0  0
    1.3370   -0.0711   -0.2471 C   0  0  0  0  0  0  0  0  0  0  0  0
    2.6420    0.0740   -0.3345 O   0  0  0  0  0  0  0  0  0  0  0  0
    3.5181   -1.0683   -0.4768 C   0  0  0  0  0  0  0  0  0  0  0  0
    0.6582   -1.3227   -0.2826 C   0  0  0  0  0  0  0  0  0  0  0  0
   -0.7124   -1.3812   -0.1828 C   0  0  0  0  0  0  0  0  0  0  0  0
   -2.5694    3.6157    0.3046 H   0  0  0  0  0  0  0  0  0  0  0  0
    1.1416    2.0884   -0.0833 H   0  0  0  0  0  0  0  0  0  0  0  0
    4.5214   -0.6496   -0.5176 H   0  0  0  0  0  0  0  0  0  0  0  0
    3.2975   -1.6024   -1.4050 H   0  0  0  0  0  0  0  0  0  0  0  0
    3.4226   -1.7294    0.3888 H   0  0  0  0  0  0  0  0  0  0  0  0
    1.2174   -2.2435   -0.3890 H   0  0  0  0  0  0  0  0  0  0  0  0
   -1.2379   -2.3318   -0.2091 H   0  0  0  0  0  0  0  0  0  0  0  0
  1  4  1  0  0  0  0
  1  2  1  0  0  0  0
  2  3  1  0  0  0  0
  5 12  1  0  0  0  0
  5  4  2  0  0  0  0
  6  5  1  0  0  0  0
  7  6  1  0  0  0  0
  8  7  1  0  0  0  0
  8 15  1  0  0  0  0
  9  6  2  0  0  0  0
  9 10  1  0  0  0  0
 10  1  2  0  0  0  0
 13  8  1  0  0  0  0
 14  8  1  0  0  0  0
 16  9  1  0  0  0  0
 17 10  1  0  0  0  0
M  RAD  4   2   2   3   3   4   2  11   2
M  END
