Coordinates from ORCA-job 4-MeOPhN2+_B3LYPG-6-31G_dp-d09-49-n800
 OpenBabel11261919463D

 17 16  0  0  0  0  0  0  0  0999 V2000
   -1.4510   -0.1488   -0.0414 C   0  0  0  0  0  0  0  0  0  0  0  0
   -2.8024   -0.1704    0.0606 N   0  0  0  0  0  0  0  0  0  0  0  0
   -3.9189   -0.1857    0.1450 N   0  0  0  0  0  0  0  0  0  0  0  0
   -0.7543    1.0674   -0.0105 C   0  0  0  0  0  0  0  0  0  0  0  0
    0.5876    1.1649   -0.1055 C   0  0  0  0  0  0  0  0  0  0  0  0
    1.3262   -0.0562   -0.2454 C   0  0  0  0  0  0  0  0  0  0  0  0
    2.6314    0.0880   -0.3329 O   0  0  0  0  0  0  0  0  0  0  0  0
    3.5065   -1.0551   -0.4749 C   0  0  0  0  0  0  0  0  0  0  0  0
    0.6468   -1.3072   -0.2808 C   0  0  0  0  0  0  0  0  0  0  0  0
   -0.7242   -1.3647   -0.1808 C   0  0  0  0  0  0  0  0  0  0  0  0
   -2.3954    3.3644    0.2746 H   0  0  0  0  0  0  0  0  0  0  0  0
    1.1317    2.1041   -0.0816 H   0  0  0  0  0  0  0  0  0  0  0  0
    4.5101   -0.6371   -0.5159 H   0  0  0  0  0  0  0  0  0  0  0  0
    3.2855   -1.5892   -1.4030 H   0  0  0  0  0  0  0  0  0  0  0  0
    3.4105   -1.7159    0.3908 H   0  0  0  0  0  0  0  0  0  0  0  0
    1.2051   -2.2286   -0.3870 H   0  0  0  0  0  0  0  0  0  0  0  0
   -1.2501   -2.3147   -0.2069 H   0  0  0  0  0  0  0  0  0  0  0  0
  1  4  1  0  0  0  0
  1  2  1  0  0  0  0
  2  3  1  0  0  0  0
  5 12  1  0  0  0  0
  5  4  2  0  0  0  0
  6  5  1  0  0  0  0
  7  6  1  0  0  0  0
  8  7  1  0  0  0  0
  8 15  1  0  0  0  0
  9  6  2  0  0  0  0
  9 10  1  0  0  0  0
 10  1  2  0  0  0  0
 13  8  1  0  0  0  0
 14  8  1  0  0  0  0
 16  9  1  0  0  0  0
 17 10  1  0  0  0  0
M  RAD  4   2   2   3   3   4   2  11   2
M  END
