Coordinates from ORCA-job 4-MeOPhN2+_B3LYPG-6-31G_dp-d09-49-n800
 OpenBabel11261919463D

 17 16  0  0  0  0  0  0  0  0999 V2000
   -1.4580   -0.1409   -0.0403 C   0  0  0  0  0  0  0  0  0  0  0  0
   -2.8090   -0.1619    0.0617 N   0  0  0  0  0  0  0  0  0  0  0  0
   -3.9255   -0.1767    0.1462 N   0  0  0  0  0  0  0  0  0  0  0  0
   -0.7623    1.0767   -0.0091 C   0  0  0  0  0  0  0  0  0  0  0  0
    0.5806    1.1732   -0.1044 C   0  0  0  0  0  0  0  0  0  0  0  0
    1.3186   -0.0475   -0.2443 C   0  0  0  0  0  0  0  0  0  0  0  0
    2.6238    0.0971   -0.3317 O   0  0  0  0  0  0  0  0  0  0  0  0
    3.4990   -1.0458   -0.4737 C   0  0  0  0  0  0  0  0  0  0  0  0
    0.6398   -1.2987   -0.2797 C   0  0  0  0  0  0  0  0  0  0  0  0
   -0.7313   -1.3561   -0.1797 C   0  0  0  0  0  0  0  0  0  0  0  0
   -2.2792    3.2238    0.2559 H   0  0  0  0  0  0  0  0  0  0  0  0
    1.1232    2.1126   -0.0803 H   0  0  0  0  0  0  0  0  0  0  0  0
    4.5026   -0.6277   -0.5146 H   0  0  0  0  0  0  0  0  0  0  0  0
    3.2782   -1.5800   -1.4017 H   0  0  0  0  0  0  0  0  0  0  0  0
    3.4031   -1.7066    0.3921 H   0  0  0  0  0  0  0  0  0  0  0  0
    1.1981   -2.2200   -0.3860 H   0  0  0  0  0  0  0  0  0  0  0  0
   -1.2569   -2.3062   -0.2058 H   0  0  0  0  0  0  0  0  0  0  0  0
  1  4  1  0  0  0  0
  1  2  1  0  0  0  0
  2  3  1  0  0  0  0
  5 12  1  0  0  0  0
  5  4  2  0  0  0  0
  6  5  1  0  0  0  0
  7  6  1  0  0  0  0
  8  7  1  0  0  0  0
  8 15  1  0  0  0  0
  9  6  2  0  0  0  0
  9 10  1  0  0  0  0
 10  1  2  0  0  0  0
 13  8  1  0  0  0  0
 14  8  1  0  0  0  0
 16  9  1  0  0  0  0
 17 10  1  0  0  0  0
M  RAD  4   2   2   3   3   4   2  11   2
M  END
