Coordinates from ORCA-job 4-MeOPhN2+_B3LYPG-6-31G_dp-d09-49-n800
 OpenBabel11261919463D

 17 16  0  0  0  0  0  0  0  0999 V2000
   -1.4235   -0.3095   -0.0537 C   0  0  0  0  0  0  0  0  0  0  0  0
   -2.7772   -0.3803    0.0451 N   0  0  0  0  0  0  0  0  0  0  0  0
   -3.8930   -0.4351    0.1265 N   0  0  0  0  0  0  0  0  0  0  0  0
   -0.7767    0.9329   -0.0161 C   0  0  0  0  0  0  0  0  0  0  0  0
    0.5644    1.0585   -0.1092 C   0  0  0  0  0  0  0  0  0  0  0  0
    1.3437   -0.1369   -0.2513 C   0  0  0  0  0  0  0  0  0  0  0  0
    2.6457    0.0460   -0.3359 O   0  0  0  0  0  0  0  0  0  0  0  0
    3.5527   -1.0705   -0.4803 C   0  0  0  0  0  0  0  0  0  0  0  0
    0.7035   -1.4087   -0.2920 C   0  0  0  0  0  0  0  0  0  0  0  0
   -0.6645   -1.5067   -0.1951 C   0  0  0  0  0  0  0  0  0  0  0  0
   -2.9160    4.9700    0.4193 H   0  0  0  0  0  0  0  0  0  0  0  0
    1.0907    2.0101   -0.0825 H   0  0  0  0  0  0  0  0  0  0  0  0
    4.5445   -0.6250   -0.5181 H   0  0  0  0  0  0  0  0  0  0  0  0
    3.3489   -1.6083   -1.4103 H   0  0  0  0  0  0  0  0  0  0  0  0
    3.4747   -1.7376    0.3826 H   0  0  0  0  0  0  0  0  0  0  0  0
    1.2904   -2.3120   -0.3995 H   0  0  0  0  0  0  0  0  0  0  0  0
   -1.1633   -2.4718   -0.2250 H   0  0  0  0  0  0  0  0  0  0  0  0
  1  4  1  0  0  0  0
  1  2  1  0  0  0  0
  2  3  1  0  0  0  0
  5 12  1  0  0  0  0
  5  4  2  0  0  0  0
  6  5  1  0  0  0  0
  7  6  1  0  0  0  0
  8  7  1  0  0  0  0
  8 15  1  0  0  0  0
  9  6  2  0  0  0  0
  9 10  1  0  0  0  0
 10  1  2  0  0  0  0
 13  8  1  0  0  0  0
 14  8  1  0  0  0  0
 16  9  1  0  0  0  0
 17 10  1  0  0  0  0
M  RAD  4   2   2   3   3   4   2  11   2
M  END
