Coordinates from ORCA-job 4-MeOPhN2+_B3LYPG-6-31G_dp-d09-49-n800
 OpenBabel11261919463D

 17 16  0  0  0  0  0  0  0  0999 V2000
   -1.4416   -0.1634   -0.0429 C   0  0  0  0  0  0  0  0  0  0  0  0
   -2.7936   -0.1875    0.0592 N   0  0  0  0  0  0  0  0  0  0  0  0
   -3.9103   -0.2055    0.1417 N   0  0  0  0  0  0  0  0  0  0  0  0
   -0.7461    1.0528   -0.0119 C   0  0  0  0  0  0  0  0  0  0  0  0
    0.5953    1.1513   -0.1069 C   0  0  0  0  0  0  0  0  0  0  0  0
    1.3360   -0.0693   -0.2469 C   0  0  0  0  0  0  0  0  0  0  0  0
    2.6410    0.0755   -0.3344 O   0  0  0  0  0  0  0  0  0  0  0  0
    3.5169   -1.0671   -0.4767 C   0  0  0  0  0  0  0  0  0  0  0  0
    0.6570   -1.3208   -0.2823 C   0  0  0  0  0  0  0  0  0  0  0  0
   -0.7137   -1.3793   -0.1823 C   0  0  0  0  0  0  0  0  0  0  0  0
   -2.5512    3.5878    0.3017 H   0  0  0  0  0  0  0  0  0  0  0  0
    1.1406    2.0904   -0.0832 H   0  0  0  0  0  0  0  0  0  0  0  0
    4.5203   -0.6485   -0.5177 H   0  0  0  0  0  0  0  0  0  0  0  0
    3.2961   -1.6012   -1.4048 H   0  0  0  0  0  0  0  0  0  0  0  0
    3.4213   -1.7281    0.3889 H   0  0  0  0  0  0  0  0  0  0  0  0
    1.2161   -2.2417   -0.3886 H   0  0  0  0  0  0  0  0  0  0  0  0
   -1.2390   -2.3299   -0.2085 H   0  0  0  0  0  0  0  0  0  0  0  0
  1  4  1  0  0  0  0
  1  2  1  0  0  0  0
  2  3  1  0  0  0  0
  5 12  1  0  0  0  0
  5  4  2  0  0  0  0
  6  5  1  0  0  0  0
  7  6  1  0  0  0  0
  8  7  1  0  0  0  0
  8 15  1  0  0  0  0
  9  6  2  0  0  0  0
  9 10  1  0  0  0  0
 10  1  2  0  0  0  0
 13  8  1  0  0  0  0
 14  8  1  0  0  0  0
 16  9  1  0  0  0  0
 17 10  1  0  0  0  0
M  RAD  4   2   2   3   3   4   2  11   2
M  END
