Coordinates from ORCA-job 4-MeOPhN2+_B3LYPG-6-31G_dp-d09-49-n800
 OpenBabel11261919463D

 17 16  0  0  0  0  0  0  0  0999 V2000
   -1.4238   -0.3130   -0.0540 C   0  0  0  0  0  0  0  0  0  0  0  0
   -2.7775   -0.3850    0.0447 N   0  0  0  0  0  0  0  0  0  0  0  0
   -3.8933   -0.4406    0.1262 N   0  0  0  0  0  0  0  0  0  0  0  0
   -0.7781    0.9298   -0.0163 C   0  0  0  0  0  0  0  0  0  0  0  0
    0.5630    1.0568   -0.1092 C   0  0  0  0  0  0  0  0  0  0  0  0
    1.3433   -0.1379   -0.2513 C   0  0  0  0  0  0  0  0  0  0  0  0
    2.6452    0.0460   -0.3358 O   0  0  0  0  0  0  0  0  0  0  0  0
    3.5530   -1.0697   -0.4802 C   0  0  0  0  0  0  0  0  0  0  0  0
    0.7042   -1.4103   -0.2921 C   0  0  0  0  0  0  0  0  0  0  0  0
   -0.6637   -1.5096   -0.1954 C   0  0  0  0  0  0  0  0  0  0  0  0
   -2.9159    4.9960    0.4211 H   0  0  0  0  0  0  0  0  0  0  0  0
    1.0884    2.0089   -0.0824 H   0  0  0  0  0  0  0  0  0  0  0  0
    4.5445   -0.6234   -0.5180 H   0  0  0  0  0  0  0  0  0  0  0  0
    3.3498   -1.6076   -1.4103 H   0  0  0  0  0  0  0  0  0  0  0  0
    3.4756   -1.7370    0.3826 H   0  0  0  0  0  0  0  0  0  0  0  0
    1.2919   -2.3130   -0.3996 H   0  0  0  0  0  0  0  0  0  0  0  0
   -1.1616   -2.4752   -0.2254 H   0  0  0  0  0  0  0  0  0  0  0  0
  1  4  1  0  0  0  0
  1  2  1  0  0  0  0
  2  3  1  0  0  0  0
  5 12  1  0  0  0  0
  5  4  2  0  0  0  0
  6  5  1  0  0  0  0
  7  6  1  0  0  0  0
  8  7  1  0  0  0  0
  8 15  1  0  0  0  0
  9  6  2  0  0  0  0
  9 10  1  0  0  0  0
 10  1  2  0  0  0  0
 13  8  1  0  0  0  0
 14  8  1  0  0  0  0
 16  9  1  0  0  0  0
 17 10  1  0  0  0  0
M  RAD  4   2   2   3   3   4   2  11   2
M  END
