Coordinates from ORCA-job 4-MeOPhN2+_B3LYPG-6-31G_dp-d09-49-n800
 OpenBabel11261919463D

 17 16  0  0  0  0  0  0  0  0999 V2000
   -1.4719   -0.1209   -0.0378 C   0  0  0  0  0  0  0  0  0  0  0  0
   -2.8223   -0.1441    0.0641 N   0  0  0  0  0  0  0  0  0  0  0  0
   -3.9389   -0.1606    0.1485 N   0  0  0  0  0  0  0  0  0  0  0  0
   -0.7828    1.1040   -0.0054 C   0  0  0  0  0  0  0  0  0  0  0  0
    0.5644    1.1911   -0.1017 C   0  0  0  0  0  0  0  0  0  0  0  0
    1.3007   -0.0275   -0.2415 C   0  0  0  0  0  0  0  0  0  0  0  0
    2.6067    0.1178   -0.3290 O   0  0  0  0  0  0  0  0  0  0  0  0
    3.4814   -1.0248   -0.4710 C   0  0  0  0  0  0  0  0  0  0  0  0
    0.6241   -1.2791   -0.2772 C   0  0  0  0  0  0  0  0  0  0  0  0
   -0.7473   -1.3356   -0.1771 C   0  0  0  0  0  0  0  0  0  0  0  0
   -2.0156    2.9028    0.2130 H   0  0  0  0  0  0  0  0  0  0  0  0
    1.1054    2.1303   -0.0772 H   0  0  0  0  0  0  0  0  0  0  0  0
    4.4851   -0.6071   -0.5119 H   0  0  0  0  0  0  0  0  0  0  0  0
    3.2609   -1.5593   -1.3990 H   0  0  0  0  0  0  0  0  0  0  0  0
    3.3859   -1.6860    0.3946 H   0  0  0  0  0  0  0  0  0  0  0  0
    1.1821   -2.2005   -0.3836 H   0  0  0  0  0  0  0  0  0  0  0  0
   -1.2729   -2.2851   -0.2032 H   0  0  0  0  0  0  0  0  0  0  0  0
  1  4  1  0  0  0  0
  1  2  1  0  0  0  0
  2  3  1  0  0  0  0
  5 12  1  0  0  0  0
  5  4  2  0  0  0  0
  6  5  1  0  0  0  0
  7  6  1  0  0  0  0
  8  7  1  0  0  0  0
  8 15  1  0  0  0  0
  9  6  2  0  0  0  0
  9 10  1  0  0  0  0
 10  1  2  0  0  0  0
 13  8  1  0  0  0  0
 14  8  1  0  0  0  0
 16  9  1  0  0  0  0
 17 10  1  0  0  0  0
M  RAD  4   2   2   3   3   4   2  11   2
M  END
