Coordinates from ORCA-job 4-MeOPhN2+_B3LYPG-6-31G_dp-d09-49-n800
 OpenBabel11261919463D

 17 16  0  0  0  0  0  0  0  0999 V2000
   -1.4233   -0.2142   -0.0475 C   0  0  0  0  0  0  0  0  0  0  0  0
   -2.7769   -0.2531    0.0537 N   0  0  0  0  0  0  0  0  0  0  0  0
   -3.8935   -0.2836    0.1371 N   0  0  0  0  0  0  0  0  0  0  0  0
   -0.7430    1.0100   -0.0140 C   0  0  0  0  0  0  0  0  0  0  0  0
    0.5988    1.1116   -0.1088 C   0  0  0  0  0  0  0  0  0  0  0  0
    1.3504   -0.1023   -0.2498 C   0  0  0  0  0  0  0  0  0  0  0  0
    2.6550    0.0517   -0.3364 O   0  0  0  0  0  0  0  0  0  0  0  0
    3.5382   -1.0846   -0.4798 C   0  0  0  0  0  0  0  0  0  0  0  0
    0.6809   -1.3591   -0.2870 C   0  0  0  0  0  0  0  0  0  0  0  0
   -0.6888   -1.4268   -0.1879 C   0  0  0  0  0  0  0  0  0  0  0  0
   -2.8414    4.1962    0.3620 H   0  0  0  0  0  0  0  0  0  0  0  0
    1.1427    2.0527   -0.0844 H   0  0  0  0  0  0  0  0  0  0  0  0
    4.5390   -0.6598   -0.5198 H   0  0  0  0  0  0  0  0  0  0  0  0
    3.3215   -1.6193   -1.4085 H   0  0  0  0  0  0  0  0  0  0  0  0
    3.4468   -1.7476    0.3848 H   0  0  0  0  0  0  0  0  0  0  0  0
    1.2470   -2.2757   -0.3940 H   0  0  0  0  0  0  0  0  0  0  0  0
   -1.2085   -2.3808   -0.2153 H   0  0  0  0  0  0  0  0  0  0  0  0
  1  4  1  0  0  0  0
  1  2  1  0  0  0  0
  2  3  1  0  0  0  0
  5 12  1  0  0  0  0
  5  4  2  0  0  0  0
  6  5  1  0  0  0  0
  7  6  1  0  0  0  0
  8  7  1  0  0  0  0
  8 15  1  0  0  0  0
  9  6  2  0  0  0  0
  9 10  1  0  0  0  0
 10  1  2  0  0  0  0
 13  8  1  0  0  0  0
 14  8  1  0  0  0  0
 16  9  1  0  0  0  0
 17 10  1  0  0  0  0
M  RAD  4   2   2   3   3   4   2  11   2
M  END
