Coordinates from ORCA-job 4-MeOPhN2+_B3LYPG-6-31G_dp-d09-49-n800
 OpenBabel11261919463D

 17 16  0  0  0  0  0  0  0  0999 V2000
   -1.4211   -0.2710   -0.0513 C   0  0  0  0  0  0  0  0  0  0  0  0
   -2.7750   -0.3286    0.0485 N   0  0  0  0  0  0  0  0  0  0  0  0
   -3.8912   -0.3732    0.1311 N   0  0  0  0  0  0  0  0  0  0  0  0
   -0.7607    0.9641   -0.0153 C   0  0  0  0  0  0  0  0  0  0  0  0
    0.5811    1.0784   -0.1091 C   0  0  0  0  0  0  0  0  0  0  0  0
    1.3486   -0.1248   -0.2509 C   0  0  0  0  0  0  0  0  0  0  0  0
    2.6519    0.0456   -0.3363 O   0  0  0  0  0  0  0  0  0  0  0  0
    3.5486   -1.0795   -0.4804 C   0  0  0  0  0  0  0  0  0  0  0  0
    0.6959   -1.3903   -0.2903 C   0  0  0  0  0  0  0  0  0  0  0  0
   -0.6729   -1.4752   -0.1925 C   0  0  0  0  0  0  0  0  0  0  0  0
   -2.9171    4.6834    0.3997 H   0  0  0  0  0  0  0  0  0  0  0  0
    1.1156    2.0253   -0.0834 H   0  0  0  0  0  0  0  0  0  0  0  0
    4.5444   -0.6430   -0.5191 H   0  0  0  0  0  0  0  0  0  0  0  0
    3.3393   -1.6159   -1.4100 H   0  0  0  0  0  0  0  0  0  0  0  0
    3.4648   -1.7451    0.3830 H   0  0  0  0  0  0  0  0  0  0  0  0
    1.2738   -2.2994   -0.3977 H   0  0  0  0  0  0  0  0  0  0  0  0
   -1.1809   -2.4355   -0.2214 H   0  0  0  0  0  0  0  0  0  0  0  0
  1  4  1  0  0  0  0
  1  2  1  0  0  0  0
  2  3  1  0  0  0  0
  5 12  1  0  0  0  0
  5  4  2  0  0  0  0
  6  5  1  0  0  0  0
  7  6  1  0  0  0  0
  8  7  1  0  0  0  0
  8 15  1  0  0  0  0
  9  6  2  0  0  0  0
  9 10  1  0  0  0  0
 10  1  2  0  0  0  0
 13  8  1  0  0  0  0
 14  8  1  0  0  0  0
 16  9  1  0  0  0  0
 17 10  1  0  0  0  0
M  RAD  4   2   2   3   3   4   2  11   2
M  END
