Coordinates from ORCA-job 4-MeOPhN2+_B3LYPG-6-31G_dp-d09-49-n800
 OpenBabel11261919463D

 17 16  0  0  0  0  0  0  0  0999 V2000
   -1.4209   -0.2619   -0.0507 C   0  0  0  0  0  0  0  0  0  0  0  0
   -2.7747   -0.3165    0.0493 N   0  0  0  0  0  0  0  0  0  0  0  0
   -3.8910   -0.3589    0.1318 N   0  0  0  0  0  0  0  0  0  0  0  0
   -0.7574    0.9717   -0.0152 C   0  0  0  0  0  0  0  0  0  0  0  0
    0.5845    1.0833   -0.1092 C   0  0  0  0  0  0  0  0  0  0  0  0
    1.3493   -0.1217   -0.2508 C   0  0  0  0  0  0  0  0  0  0  0  0
    2.6529    0.0459   -0.3365 O   0  0  0  0  0  0  0  0  0  0  0  0
    3.5473   -1.0810   -0.4804 C   0  0  0  0  0  0  0  0  0  0  0  0
    0.6938   -1.3858   -0.2898 C   0  0  0  0  0  0  0  0  0  0  0  0
   -0.6752   -1.4676   -0.1917 C   0  0  0  0  0  0  0  0  0  0  0  0
   -2.9118    4.6112    0.3948 H   0  0  0  0  0  0  0  0  0  0  0  0
    1.1208    2.0291   -0.0838 H   0  0  0  0  0  0  0  0  0  0  0  0
    4.5440   -0.6464   -0.5193 H   0  0  0  0  0  0  0  0  0  0  0  0
    3.3368   -1.6171   -1.4098 H   0  0  0  0  0  0  0  0  0  0  0  0
    3.4622   -1.7461    0.3833 H   0  0  0  0  0  0  0  0  0  0  0  0
    1.2697   -2.2961   -0.3971 H   0  0  0  0  0  0  0  0  0  0  0  0
   -1.1852   -2.4268   -0.2203 H   0  0  0  0  0  0  0  0  0  0  0  0
  1  4  1  0  0  0  0
  1  2  1  0  0  0  0
  2  3  1  0  0  0  0
  5 12  1  0  0  0  0
  5  4  2  0  0  0  0
  6  5  1  0  0  0  0
  7  6  1  0  0  0  0
  8  7  1  0  0  0  0
  8 15  1  0  0  0  0
  9  6  2  0  0  0  0
  9 10  1  0  0  0  0
 10  1  2  0  0  0  0
 13  8  1  0  0  0  0
 14  8  1  0  0  0  0
 16  9  1  0  0  0  0
 17 10  1  0  0  0  0
M  RAD  4   2   2   3   3   4   2  11   2
M  END
