Coordinates from ORCA-job 4-MeOPhN2+_B3LYPG-6-31G_dp-d09-49-n800
 OpenBabel11261919463D

 17 16  0  0  0  0  0  0  0  0999 V2000
   -1.4217   -0.2808   -0.0519 C   0  0  0  0  0  0  0  0  0  0  0  0
   -2.7755   -0.3417    0.0477 N   0  0  0  0  0  0  0  0  0  0  0  0
   -3.8917   -0.3888    0.1299 N   0  0  0  0  0  0  0  0  0  0  0  0
   -0.7646    0.9560   -0.0154 C   0  0  0  0  0  0  0  0  0  0  0  0
    0.5770    1.0734   -0.1091 C   0  0  0  0  0  0  0  0  0  0  0  0
    1.3475   -0.1279   -0.2510 C   0  0  0  0  0  0  0  0  0  0  0  0
    2.6505    0.0455   -0.3362 O   0  0  0  0  0  0  0  0  0  0  0  0
    3.5497   -1.0774   -0.4804 C   0  0  0  0  0  0  0  0  0  0  0  0
    0.6979   -1.3950   -0.2908 C   0  0  0  0  0  0  0  0  0  0  0  0
   -0.6707   -1.4832   -0.1932 C   0  0  0  0  0  0  0  0  0  0  0  0
   -2.9184    4.7575    0.4047 H   0  0  0  0  0  0  0  0  0  0  0  0
    1.1095    2.0215   -0.0831 H   0  0  0  0  0  0  0  0  0  0  0  0
    4.5446   -0.6387   -0.5189 H   0  0  0  0  0  0  0  0  0  0  0  0
    3.3418   -1.6141   -1.4101 H   0  0  0  0  0  0  0  0  0  0  0  0
    3.4673   -1.7435    0.3828 H   0  0  0  0  0  0  0  0  0  0  0  0
    1.2781   -2.3026   -0.3982 H   0  0  0  0  0  0  0  0  0  0  0  0
   -1.1763   -2.4448   -0.2224 H   0  0  0  0  0  0  0  0  0  0  0  0
  1  4  1  0  0  0  0
  1  2  1  0  0  0  0
  2  3  1  0  0  0  0
  5 12  1  0  0  0  0
  5  4  2  0  0  0  0
  6  5  1  0  0  0  0
  7  6  1  0  0  0  0
  8  7  1  0  0  0  0
  8 15  1  0  0  0  0
  9  6  2  0  0  0  0
  9 10  1  0  0  0  0
 10  1  2  0  0  0  0
 13  8  1  0  0  0  0
 14  8  1  0  0  0  0
 16  9  1  0  0  0  0
 17 10  1  0  0  0  0
M  RAD  4   2   2   3   3   4   2  11   2
M  END
