Coordinates from ORCA-job 4-MeOPhN2+_B3LYPG-6-31G_dp-d09-49-n800
 OpenBabel11261919463D

 17 17  0  0  0  0  0  0  0  0999 V2000
   -1.4915   -0.0667   -0.0324 C   0  0  0  0  0  0  0  0  0  0  0  0
   -2.8440   -0.1082    0.0676 N   0  0  0  0  0  0  0  0  0  0  0  0
   -3.9614   -0.1380    0.1505 N   0  0  0  0  0  0  0  0  0  0  0  0
   -0.8367    1.1926    0.0049 C   0  0  0  0  0  0  0  0  0  0  0  0
    0.5281    1.2229   -0.0960 C   0  0  0  0  0  0  0  0  0  0  0  0
    1.2648    0.0128   -0.2351 C   0  0  0  0  0  0  0  0  0  0  0  0
    2.5726    0.1598   -0.3226 O   0  0  0  0  0  0  0  0  0  0  0  0
    3.4450   -0.9824   -0.4659 C   0  0  0  0  0  0  0  0  0  0  0  0
    0.5922   -1.2377   -0.2711 C   0  0  0  0  0  0  0  0  0  0  0  0
   -0.7800   -1.2837   -0.1705 C   0  0  0  0  0  0  0  0  0  0  0  0
   -1.4782    2.2062    0.1235 H   0  0  0  0  0  0  0  0  0  0  0  0
    1.0755    2.1581   -0.0726 H   0  0  0  0  0  0  0  0  0  0  0  0
    4.4497   -0.5671   -0.5075 H   0  0  0  0  0  0  0  0  0  0  0  0
    3.2239   -1.5172   -1.3938 H   0  0  0  0  0  0  0  0  0  0  0  0
    3.3501   -1.6452    0.3989 H   0  0  0  0  0  0  0  0  0  0  0  0
    1.1461   -2.1617   -0.3772 H   0  0  0  0  0  0  0  0  0  0  0  0
   -1.3111   -2.2292   -0.1960 H   0  0  0  0  0  0  0  0  0  0  0  0
  1  4  1  0  0  0  0
  1  2  1  0  0  0  0
  2  3  1  0  0  0  0
  4 11  1  0  0  0  0
  5 12  1  0  0  0  0
  5  4  2  0  0  0  0
  6  5  1  0  0  0  0
  7  6  1  0  0  0  0
  8  7  1  0  0  0  0
  8 15  1  0  0  0  0
  9  6  2  0  0  0  0
  9 10  1  0  0  0  0
 10  1  2  0  0  0  0
 13  8  1  0  0  0  0
 14  8  1  0  0  0  0
 16  9  1  0  0  0  0
 17 10  1  0  0  0  0
M  RAD  2   2   2   3   3
M  END
