Coordinates from ORCA-job 4-MeOPhN2+_B3LYPG-6-31G_dp-d09-49-n800
 OpenBabel11261919463D

 17 16  0  0  0  0  0  0  0  0999 V2000
   -1.4451   -0.1581   -0.0426 C   0  0  0  0  0  0  0  0  0  0  0  0
   -2.7968   -0.1812    0.0594 N   0  0  0  0  0  0  0  0  0  0  0  0
   -3.9134   -0.1982    0.1438 N   0  0  0  0  0  0  0  0  0  0  0  0
   -0.7490    1.0579   -0.0116 C   0  0  0  0  0  0  0  0  0  0  0  0
    0.5924    1.1562   -0.1065 C   0  0  0  0  0  0  0  0  0  0  0  0
    1.3324   -0.0646   -0.2465 C   0  0  0  0  0  0  0  0  0  0  0  0
    2.6375    0.0800   -0.3339 O   0  0  0  0  0  0  0  0  0  0  0  0
    3.5132   -1.0627   -0.4759 C   0  0  0  0  0  0  0  0  0  0  0  0
    0.6532   -1.3159   -0.2818 C   0  0  0  0  0  0  0  0  0  0  0  0
   -0.7175   -1.3740   -0.1819 C   0  0  0  0  0  0  0  0  0  0  0  0
   -2.4948    3.5068    0.2920 H   0  0  0  0  0  0  0  0  0  0  0  0
    1.1374    2.0953   -0.0827 H   0  0  0  0  0  0  0  0  0  0  0  0
    4.5166   -0.6443   -0.5168 H   0  0  0  0  0  0  0  0  0  0  0  0
    3.2924   -1.5968   -1.4040 H   0  0  0  0  0  0  0  0  0  0  0  0
    3.4174   -1.7236    0.3898 H   0  0  0  0  0  0  0  0  0  0  0  0
    1.2120   -2.2370   -0.3881 H   0  0  0  0  0  0  0  0  0  0  0  0
   -1.2431   -2.3244   -0.2081 H   0  0  0  0  0  0  0  0  0  0  0  0
  1  4  1  0  0  0  0
  1  2  1  0  0  0  0
  2  3  1  0  0  0  0
  5 12  1  0  0  0  0
  5  4  2  0  0  0  0
  6  5  1  0  0  0  0
  7  6  1  0  0  0  0
  8  7  1  0  0  0  0
  8 15  1  0  0  0  0
  9  6  2  0  0  0  0
  9 10  1  0  0  0  0
 10  1  2  0  0  0  0
 13  8  1  0  0  0  0
 14  8  1  0  0  0  0
 16  9  1  0  0  0  0
 17 10  1  0  0  0  0
M  RAD  4   2   2   3   3   4   2  11   2
M  END
