Coordinates from ORCA-job 4-MeOPhN2+_B3LYPG-6-31G_dp-d09-49-n800
 OpenBabel11261919463D

 17 16  0  0  0  0  0  0  0  0999 V2000
   -1.4712   -0.1221   -0.0379 C   0  0  0  0  0  0  0  0  0  0  0  0
   -2.8216   -0.1451    0.0640 N   0  0  0  0  0  0  0  0  0  0  0  0
   -3.9382   -0.1613    0.1484 N   0  0  0  0  0  0  0  0  0  0  0  0
   -0.7816    1.1022   -0.0057 C   0  0  0  0  0  0  0  0  0  0  0  0
    0.5653    1.1902   -0.1019 C   0  0  0  0  0  0  0  0  0  0  0  0
    1.3017   -0.0286   -0.2417 C   0  0  0  0  0  0  0  0  0  0  0  0
    2.6076    0.1166   -0.3291 O   0  0  0  0  0  0  0  0  0  0  0  0
    3.4824   -1.0259   -0.4711 C   0  0  0  0  0  0  0  0  0  0  0  0
    0.6250   -1.2802   -0.2774 C   0  0  0  0  0  0  0  0  0  0  0  0
   -0.7464   -1.3367   -0.1772 C   0  0  0  0  0  0  0  0  0  0  0  0
   -2.0301    2.9204    0.2154 H   0  0  0  0  0  0  0  0  0  0  0  0
    1.1063    2.1295   -0.0774 H   0  0  0  0  0  0  0  0  0  0  0  0
    4.4861   -0.6082   -0.5121 H   0  0  0  0  0  0  0  0  0  0  0  0
    3.2619   -1.5605   -1.3991 H   0  0  0  0  0  0  0  0  0  0  0  0
    3.3868   -1.6871    0.3945 H   0  0  0  0  0  0  0  0  0  0  0  0
    1.1830   -2.2016   -0.3837 H   0  0  0  0  0  0  0  0  0  0  0  0
   -1.2720   -2.2863   -0.2034 H   0  0  0  0  0  0  0  0  0  0  0  0
  1  4  1  0  0  0  0
  1  2  1  0  0  0  0
  2  3  1  0  0  0  0
  5 12  1  0  0  0  0
  5  4  2  0  0  0  0
  6  5  1  0  0  0  0
  7  6  1  0  0  0  0
  8  7  1  0  0  0  0
  8 15  1  0  0  0  0
  9  6  2  0  0  0  0
  9 10  1  0  0  0  0
 10  1  2  0  0  0  0
 13  8  1  0  0  0  0
 14  8  1  0  0  0  0
 16  9  1  0  0  0  0
 17 10  1  0  0  0  0
M  RAD  4   2   2   3   3   4   2  11   2
M  END
