Coordinates from ORCA-job 4-MeOPhN2+_B3LYPG-6-31G_dp-d09-49-n800
 OpenBabel11261919463D

 17 16  0  0  0  0  0  0  0  0999 V2000
   -1.4266   -0.3439   -0.0561 C   0  0  0  0  0  0  0  0  0  0  0  0
   -2.7800   -0.4269    0.0416 N   0  0  0  0  0  0  0  0  0  0  0  0
   -3.8954   -0.4910    0.1222 N   0  0  0  0  0  0  0  0  0  0  0  0
   -0.7922    0.9047   -0.0174 C   0  0  0  0  0  0  0  0  0  0  0  0
    0.5483    1.0413   -0.1096 C   0  0  0  0  0  0  0  0  0  0  0  0
    1.3383   -0.1467   -0.2517 C   0  0  0  0  0  0  0  0  0  0  0  0
    2.6390    0.0476   -0.3355 O   0  0  0  0  0  0  0  0  0  0  0  0
    3.5554   -1.0608   -0.4798 C   0  0  0  0  0  0  0  0  0  0  0  0
    0.7097   -1.4243   -0.2932 C   0  0  0  0  0  0  0  0  0  0  0  0
   -0.6574   -1.5346   -0.1973 C   0  0  0  0  0  0  0  0  0  0  0  0
   -2.9012    5.2149    0.4361 H   0  0  0  0  0  0  0  0  0  0  0  0
    1.0665    1.9974   -0.0822 H   0  0  0  0  0  0  0  0  0  0  0  0
    4.5435   -0.6069   -0.5170 H   0  0  0  0  0  0  0  0  0  0  0  0
    3.3569   -1.6001   -1.4101 H   0  0  0  0  0  0  0  0  0  0  0  0
    3.4829   -1.7291    0.3827 H   0  0  0  0  0  0  0  0  0  0  0  0
    1.3048   -2.3222   -0.4006 H   0  0  0  0  0  0  0  0  0  0  0  0
   -1.1476   -2.5041   -0.2279 H   0  0  0  0  0  0  0  0  0  0  0  0
  1  4  1  0  0  0  0
  1  2  1  0  0  0  0
  2  3  1  0  0  0  0
  5 12  1  0  0  0  0
  5  4  2  0  0  0  0
  6  5  1  0  0  0  0
  7  6  1  0  0  0  0
  8  7  1  0  0  0  0
  8 15  1  0  0  0  0
  9  6  2  0  0  0  0
  9 10  1  0  0  0  0
 10  1  2  0  0  0  0
 13  8  1  0  0  0  0
 14  8  1  0  0  0  0
 16  9  1  0  0  0  0
 17 10  1  0  0  0  0
M  RAD  4   2   2   3   3   4   2  11   2
M  END
