Coordinates from ORCA-job 4-MeOPhN2+_B3LYPG-6-31G_dp-d09-49-n800
 OpenBabel11261919463D

 17 16  0  0  0  0  0  0  0  0999 V2000
   -1.4803   -0.1034   -0.0359 C   0  0  0  0  0  0  0  0  0  0  0  0
   -2.8307   -0.1320    0.0656 N   0  0  0  0  0  0  0  0  0  0  0  0
   -3.9476   -0.1525    0.1497 N   0  0  0  0  0  0  0  0  0  0  0  0
   -0.8014    1.1318   -0.0020 C   0  0  0  0  0  0  0  0  0  0  0  0
    0.5514    1.2035   -0.0997 C   0  0  0  0  0  0  0  0  0  0  0  0
    1.2871   -0.0125   -0.2392 C   0  0  0  0  0  0  0  0  0  0  0  0
    2.5938    0.1333   -0.3266 O   0  0  0  0  0  0  0  0  0  0  0  0
    3.4676   -1.0091   -0.4689 C   0  0  0  0  0  0  0  0  0  0  0  0
    0.6125   -1.2642   -0.2752 C   0  0  0  0  0  0  0  0  0  0  0  0
   -0.7592   -1.3183   -0.1749 C   0  0  0  0  0  0  0  0  0  0  0  0
   -1.8162    2.6572    0.1804 H   0  0  0  0  0  0  0  0  0  0  0  0
    1.0932    2.1416   -0.0754 H   0  0  0  0  0  0  0  0  0  0  0  0
    4.4717   -0.5923   -0.5100 H   0  0  0  0  0  0  0  0  0  0  0  0
    3.2471   -1.5438   -1.3969 H   0  0  0  0  0  0  0  0  0  0  0  0
    3.3723   -1.6709    0.3963 H   0  0  0  0  0  0  0  0  0  0  0  0
    1.1697   -2.1861   -0.3815 H   0  0  0  0  0  0  0  0  0  0  0  0
   -1.2858   -2.2669   -0.2010 H   0  0  0  0  0  0  0  0  0  0  0  0
  1  4  1  0  0  0  0
  1  2  1  0  0  0  0
  2  3  1  0  0  0  0
  5 12  1  0  0  0  0
  5  4  2  0  0  0  0
  6  5  1  0  0  0  0
  7  6  1  0  0  0  0
  8  7  1  0  0  0  0
  8 15  1  0  0  0  0
  9  6  2  0  0  0  0
  9 10  1  0  0  0  0
 10  1  2  0  0  0  0
 13  8  1  0  0  0  0
 14  8  1  0  0  0  0
 16  9  1  0  0  0  0
 17 10  1  0  0  0  0
M  RAD  4   2   2   3   3   4   2  11   2
M  END
