Coordinates from ORCA-job 4-MeOPhN2+_B3LYPG-6-31G_dp-d09-49-n800
 OpenBabel11261919463D

 17 17  0  0  0  0  0  0  0  0999 V2000
   -1.4969   -0.0494   -0.0309 C   0  0  0  0  0  0  0  0  0  0  0  0
   -2.8505   -0.0927    0.0695 N   0  0  0  0  0  0  0  0  0  0  0  0
   -3.9679   -0.1242    0.1524 N   0  0  0  0  0  0  0  0  0  0  0  0
   -0.8495    1.2163    0.0076 C   0  0  0  0  0  0  0  0  0  0  0  0
    0.5181    1.2326   -0.0952 C   0  0  0  0  0  0  0  0  0  0  0  0
    1.2561    0.0245   -0.2345 C   0  0  0  0  0  0  0  0  0  0  0  0
    2.5640    0.1717   -0.3218 O   0  0  0  0  0  0  0  0  0  0  0  0
    3.4360   -0.9707   -0.4639 C   0  0  0  0  0  0  0  0  0  0  0  0
    0.5830   -1.2248   -0.2702 C   0  0  0  0  0  0  0  0  0  0  0  0
   -0.7896   -1.2674   -0.1691 C   0  0  0  0  0  0  0  0  0  0  0  0
   -1.3325    1.9882    0.0987 H   0  0  0  0  0  0  0  0  0  0  0  0
    1.0663    2.1680   -0.0715 H   0  0  0  0  0  0  0  0  0  0  0  0
    4.4409   -0.5558   -0.5060 H   0  0  0  0  0  0  0  0  0  0  0  0
    3.2147   -1.5066   -1.3913 H   0  0  0  0  0  0  0  0  0  0  0  0
    3.3409   -1.6326    0.4014 H   0  0  0  0  0  0  0  0  0  0  0  0
    1.1350   -2.1500   -0.3763 H   0  0  0  0  0  0  0  0  0  0  0  0
   -1.3229   -2.2116   -0.1944 H   0  0  0  0  0  0  0  0  0  0  0  0
  1  4  1  0  0  0  0
  1  2  1  0  0  0  0
  2  3  1  0  0  0  0
  4 11  1  0  0  0  0
  5 12  1  0  0  0  0
  5  4  2  0  0  0  0
  6  5  1  0  0  0  0
  7  6  1  0  0  0  0
  8  7  1  0  0  0  0
  8 15  1  0  0  0  0
  9  6  2  0  0  0  0
  9 10  1  0  0  0  0
 10  1  2  0  0  0  0
 13  8  1  0  0  0  0
 14  8  1  0  0  0  0
 16  9  1  0  0  0  0
 17 10  1  0  0  0  0
M  RAD  2   2   2   3   3
M  END
