Coordinates from ORCA-job 4-MeOPhN2+_B3LYPG-6-31G_dp-d09-49-n800
 OpenBabel11261919463D

 17 16  0  0  0  0  0  0  0  0999 V2000
   -1.4472   -0.1544   -0.0421 C   0  0  0  0  0  0  0  0  0  0  0  0
   -2.7989   -0.1765    0.0599 N   0  0  0  0  0  0  0  0  0  0  0  0
   -3.9154   -0.1927    0.1442 N   0  0  0  0  0  0  0  0  0  0  0  0
   -0.7506    1.0614   -0.0112 C   0  0  0  0  0  0  0  0  0  0  0  0
    0.5908    1.1595   -0.1062 C   0  0  0  0  0  0  0  0  0  0  0  0
    1.3302   -0.0615   -0.2461 C   0  0  0  0  0  0  0  0  0  0  0  0
    2.6353    0.0830   -0.3335 O   0  0  0  0  0  0  0  0  0  0  0  0
    3.5108   -1.0599   -0.4756 C   0  0  0  0  0  0  0  0  0  0  0  0
    0.6508   -1.3126   -0.2814 C   0  0  0  0  0  0  0  0  0  0  0  0
   -0.7201   -1.3703   -0.1815 C   0  0  0  0  0  0  0  0  0  0  0  0
   -2.4586    3.4514    0.2855 H   0  0  0  0  0  0  0  0  0  0  0  0
    1.1355    2.0986   -0.0824 H   0  0  0  0  0  0  0  0  0  0  0  0
    4.5143   -0.6417   -0.5165 H   0  0  0  0  0  0  0  0  0  0  0  0
    3.2899   -1.5940   -1.4036 H   0  0  0  0  0  0  0  0  0  0  0  0
    3.4148   -1.7207    0.3902 H   0  0  0  0  0  0  0  0  0  0  0  0
    1.2093   -2.2338   -0.3877 H   0  0  0  0  0  0  0  0  0  0  0  0
   -1.2459   -2.3205   -0.2076 H   0  0  0  0  0  0  0  0  0  0  0  0
  1  4  1  0  0  0  0
  1  2  1  0  0  0  0
  2  3  1  0  0  0  0
  5 12  1  0  0  0  0
  5  4  2  0  0  0  0
  6  5  1  0  0  0  0
  7  6  1  0  0  0  0
  8  7  1  0  0  0  0
  8 15  1  0  0  0  0
  9  6  2  0  0  0  0
  9 10  1  0  0  0  0
 10  1  2  0  0  0  0
 13  8  1  0  0  0  0
 14  8  1  0  0  0  0
 16  9  1  0  0  0  0
 17 10  1  0  0  0  0
M  RAD  4   2   2   3   3   4   2  11   2
M  END
