Coordinates from ORCA-job 4-MeOPhN2+_B3LYPG-6-31G_dp-d09-49-n800
 OpenBabel11261919463D

 17 16  0  0  0  0  0  0  0  0999 V2000
   -1.4240   -0.3166   -0.0542 C   0  0  0  0  0  0  0  0  0  0  0  0
   -2.7777   -0.3898    0.0444 N   0  0  0  0  0  0  0  0  0  0  0  0
   -3.8934   -0.4465    0.1257 N   0  0  0  0  0  0  0  0  0  0  0  0
   -0.7797    0.9269   -0.0164 C   0  0  0  0  0  0  0  0  0  0  0  0
    0.5613    1.0549   -0.1092 C   0  0  0  0  0  0  0  0  0  0  0  0
    1.3428   -0.1390   -0.2514 C   0  0  0  0  0  0  0  0  0  0  0  0
    2.6445    0.0461   -0.3358 O   0  0  0  0  0  0  0  0  0  0  0  0
    3.5534   -1.0687   -0.4802 C   0  0  0  0  0  0  0  0  0  0  0  0
    0.7049   -1.4120   -0.2923 C   0  0  0  0  0  0  0  0  0  0  0  0
   -0.6629   -1.5126   -0.1956 C   0  0  0  0  0  0  0  0  0  0  0  0
   -2.9150    5.0225    0.4229 H   0  0  0  0  0  0  0  0  0  0  0  0
    1.0859    2.0075   -0.0824 H   0  0  0  0  0  0  0  0  0  0  0  0
    4.5445   -0.6215   -0.5179 H   0  0  0  0  0  0  0  0  0  0  0  0
    3.3507   -1.6068   -1.4103 H   0  0  0  0  0  0  0  0  0  0  0  0
    3.4765   -1.7362    0.3826 H   0  0  0  0  0  0  0  0  0  0  0  0
    1.2934   -2.3142   -0.3998 H   0  0  0  0  0  0  0  0  0  0  0  0
   -1.1599   -2.4786   -0.2257 H   0  0  0  0  0  0  0  0  0  0  0  0
  1  4  1  0  0  0  0
  1  2  1  0  0  0  0
  2  3  1  0  0  0  0
  5 12  1  0  0  0  0
  5  4  2  0  0  0  0
  6  5  1  0  0  0  0
  7  6  1  0  0  0  0
  8  7  1  0  0  0  0
  8 15  1  0  0  0  0
  9  6  2  0  0  0  0
  9 10  1  0  0  0  0
 10  1  2  0  0  0  0
 13  8  1  0  0  0  0
 14  8  1  0  0  0  0
 16  9  1  0  0  0  0
 17 10  1  0  0  0  0
M  RAD  4   2   2   3   3   4   2  11   2
M  END
