Coordinates from ORCA-job 4-MeOPhN2+_B3LYPG-6-31G_dp-d09-49-n800
 OpenBabel11261919463D

 17 17  0  0  0  0  0  0  0  0999 V2000
   -1.4967   -0.0501   -0.0309 C   0  0  0  0  0  0  0  0  0  0  0  0
   -2.8502   -0.0934    0.0695 N   0  0  0  0  0  0  0  0  0  0  0  0
   -3.9677   -0.1247    0.1525 N   0  0  0  0  0  0  0  0  0  0  0  0
   -0.8492    1.2157    0.0075 C   0  0  0  0  0  0  0  0  0  0  0  0
    0.5184    1.2322   -0.0953 C   0  0  0  0  0  0  0  0  0  0  0  0
    1.2563    0.0240   -0.2346 C   0  0  0  0  0  0  0  0  0  0  0  0
    2.5642    0.1713   -0.3220 O   0  0  0  0  0  0  0  0  0  0  0  0
    3.4363   -0.9711   -0.4640 C   0  0  0  0  0  0  0  0  0  0  0  0
    0.5833   -1.2253   -0.2703 C   0  0  0  0  0  0  0  0  0  0  0  0
   -0.7893   -1.2680   -0.1692 C   0  0  0  0  0  0  0  0  0  0  0  0
   -1.3376    1.9958    0.0996 H   0  0  0  0  0  0  0  0  0  0  0  0
    1.0667    2.1675   -0.0716 H   0  0  0  0  0  0  0  0  0  0  0  0
    4.4412   -0.5562   -0.5058 H   0  0  0  0  0  0  0  0  0  0  0  0
    3.2152   -1.5069   -1.3914 H   0  0  0  0  0  0  0  0  0  0  0  0
    3.3410   -1.6330    0.4014 H   0  0  0  0  0  0  0  0  0  0  0  0
    1.1354   -2.1504   -0.3764 H   0  0  0  0  0  0  0  0  0  0  0  0
   -1.3225   -2.2122   -0.1944 H   0  0  0  0  0  0  0  0  0  0  0  0
  1  4  1  0  0  0  0
  1  2  1  0  0  0  0
  2  3  1  0  0  0  0
  4 11  1  0  0  0  0
  5 12  1  0  0  0  0
  5  4  2  0  0  0  0
  6  5  1  0  0  0  0
  7  6  1  0  0  0  0
  8  7  1  0  0  0  0
  8 15  1  0  0  0  0
  9  6  2  0  0  0  0
  9 10  1  0  0  0  0
 10  1  2  0  0  0  0
 13  8  1  0  0  0  0
 14  8  1  0  0  0  0
 16  9  1  0  0  0  0
 17 10  1  0  0  0  0
M  RAD  2   2   2   3   3
M  END
