Coordinates from ORCA-job 4-MeOPhN2+_B3LYPG-6-31G_dp-d09-49-n800
 OpenBabel11261919463D

 17 16  0  0  0  0  0  0  0  0999 V2000
   -1.4655   -0.1309   -0.0389 C   0  0  0  0  0  0  0  0  0  0  0  0
   -2.8161   -0.1525    0.0630 N   0  0  0  0  0  0  0  0  0  0  0  0
   -3.9326   -0.1676    0.1475 N   0  0  0  0  0  0  0  0  0  0  0  0
   -0.7722    1.0896   -0.0073 C   0  0  0  0  0  0  0  0  0  0  0  0
    0.5724    1.1826   -0.1030 C   0  0  0  0  0  0  0  0  0  0  0  0
    1.3095   -0.0372   -0.2429 C   0  0  0  0  0  0  0  0  0  0  0  0
    2.6150    0.1077   -0.3303 O   0  0  0  0  0  0  0  0  0  0  0  0
    3.4901   -1.0350   -0.4723 C   0  0  0  0  0  0  0  0  0  0  0  0
    0.6317   -1.2886   -0.2784 C   0  0  0  0  0  0  0  0  0  0  0  0
   -0.7396   -1.3458   -0.1783 C   0  0  0  0  0  0  0  0  0  0  0  0
   -2.1440    3.0587    0.2338 H   0  0  0  0  0  0  0  0  0  0  0  0
    1.1139    2.1221   -0.0786 H   0  0  0  0  0  0  0  0  0  0  0  0
    4.4937   -0.6171   -0.5132 H   0  0  0  0  0  0  0  0  0  0  0  0
    3.2694   -1.5694   -1.4003 H   0  0  0  0  0  0  0  0  0  0  0  0
    3.3944   -1.6960    0.3934 H   0  0  0  0  0  0  0  0  0  0  0  0
    1.1899   -2.2099   -0.3848 H   0  0  0  0  0  0  0  0  0  0  0  0
   -1.2650   -2.2956   -0.2045 H   0  0  0  0  0  0  0  0  0  0  0  0
  1  4  1  0  0  0  0
  1  2  1  0  0  0  0
  2  3  1  0  0  0  0
  5 12  1  0  0  0  0
  5  4  2  0  0  0  0
  6  5  1  0  0  0  0
  7  6  1  0  0  0  0
  8  7  1  0  0  0  0
  8 15  1  0  0  0  0
  9  6  2  0  0  0  0
  9 10  1  0  0  0  0
 10  1  2  0  0  0  0
 13  8  1  0  0  0  0
 14  8  1  0  0  0  0
 16  9  1  0  0  0  0
 17 10  1  0  0  0  0
M  RAD  4   2   2   3   3   4   2  11   2
M  END
