Coordinates from ORCA-job 4-MeOPhN2+_B3LYPG-6-31G_dp-d09-49-n800
 OpenBabel11261919463D

 17 16  0  0  0  0  0  0  0  0999 V2000
   -1.4350   -0.1750   -0.0443 C   0  0  0  0  0  0  0  0  0  0  0  0
   -2.7876   -0.2021    0.0575 N   0  0  0  0  0  0  0  0  0  0  0  0
   -3.9042   -0.2227    0.1415 N   0  0  0  0  0  0  0  0  0  0  0  0
   -0.7421    1.0422   -0.0127 C   0  0  0  0  0  0  0  0  0  0  0  0
    0.5991    1.1408   -0.1076 C   0  0  0  0  0  0  0  0  0  0  0  0
    1.3419   -0.0788   -0.2479 C   0  0  0  0  0  0  0  0  0  0  0  0
    2.6468    0.0672   -0.3352 O   0  0  0  0  0  0  0  0  0  0  0  0
    3.5238   -1.0744   -0.4777 C   0  0  0  0  0  0  0  0  0  0  0  0
    0.6641   -1.3311   -0.2837 C   0  0  0  0  0  0  0  0  0  0  0  0
   -0.7063   -1.3908   -0.1839 C   0  0  0  0  0  0  0  0  0  0  0  0
   -2.6529    3.7529    0.3196 H   0  0  0  0  0  0  0  0  0  0  0  0
    1.1451    2.0800   -0.0838 H   0  0  0  0  0  0  0  0  0  0  0  0
    4.5268   -0.6550   -0.5184 H   0  0  0  0  0  0  0  0  0  0  0  0
    3.3036   -1.6085   -1.4060 H   0  0  0  0  0  0  0  0  0  0  0  0
    3.4287   -1.7359    0.3877 H   0  0  0  0  0  0  0  0  0  0  0  0
    1.2242   -2.2514   -0.3902 H   0  0  0  0  0  0  0  0  0  0  0  0
   -1.2310   -2.3419   -0.2104 H   0  0  0  0  0  0  0  0  0  0  0  0
  1  4  1  0  0  0  0
  1  2  1  0  0  0  0
  2  3  1  0  0  0  0
  5 12  1  0  0  0  0
  5  4  2  0  0  0  0
  6  5  1  0  0  0  0
  7  6  1  0  0  0  0
  8  7  1  0  0  0  0
  8 15  1  0  0  0  0
  9  6  2  0  0  0  0
  9 10  1  0  0  0  0
 10  1  2  0  0  0  0
 13  8  1  0  0  0  0
 14  8  1  0  0  0  0
 16  9  1  0  0  0  0
 17 10  1  0  0  0  0
M  RAD  4   2   2   3   3   4   2  11   2
M  END
