Coordinates from ORCA-job 4-MeOPhN2+_B3LYPG-6-31G_dp-d09-49-n800
 OpenBabel11261919463D

 17 17  0  0  0  0  0  0  0  0999 V2000
   -1.4939   -0.0589   -0.0317 C   0  0  0  0  0  0  0  0  0  0  0  0
   -2.8468   -0.1019    0.0684 N   0  0  0  0  0  0  0  0  0  0  0  0
   -3.9643   -0.1326    0.1513 N   0  0  0  0  0  0  0  0  0  0  0  0
   -0.8430    1.2041    0.0062 C   0  0  0  0  0  0  0  0  0  0  0  0
    0.5236    1.2270   -0.0957 C   0  0  0  0  0  0  0  0  0  0  0  0
    1.2608    0.0179   -0.2348 C   0  0  0  0  0  0  0  0  0  0  0  0
    2.5687    0.1651   -0.3223 O   0  0  0  0  0  0  0  0  0  0  0  0
    3.4409   -0.9772   -0.4650 C   0  0  0  0  0  0  0  0  0  0  0  0
    0.5881   -1.2321   -0.2707 C   0  0  0  0  0  0  0  0  0  0  0  0
   -0.7842   -1.2764   -0.1698 C   0  0  0  0  0  0  0  0  0  0  0  0
   -1.4127    2.1098    0.1124 H   0  0  0  0  0  0  0  0  0  0  0  0
    1.0718    2.1621   -0.0722 H   0  0  0  0  0  0  0  0  0  0  0  0
    4.4457   -0.5621   -0.5066 H   0  0  0  0  0  0  0  0  0  0  0  0
    3.2199   -1.5123   -1.3928 H   0  0  0  0  0  0  0  0  0  0  0  0
    3.3458   -1.6397    0.3999 H   0  0  0  0  0  0  0  0  0  0  0  0
    1.1411   -2.1566   -0.3768 H   0  0  0  0  0  0  0  0  0  0  0  0
   -1.3164   -2.2212   -0.1952 H   0  0  0  0  0  0  0  0  0  0  0  0
  1  4  1  0  0  0  0
  1  2  1  0  0  0  0
  2  3  1  0  0  0  0
  4 11  1  0  0  0  0
  5 12  1  0  0  0  0
  5  4  2  0  0  0  0
  6  5  1  0  0  0  0
  7  6  1  0  0  0  0
  8  7  1  0  0  0  0
  8 15  1  0  0  0  0
  9  6  2  0  0  0  0
  9 10  1  0  0  0  0
 10  1  2  0  0  0  0
 13  8  1  0  0  0  0
 14  8  1  0  0  0  0
 16  9  1  0  0  0  0
 17 10  1  0  0  0  0
M  RAD  2   2   2   3   3
M  END
