Coordinates from ORCA-job 4-MeOPhN2+_B3LYPG-6-31G_dp-d09-49-n800
 OpenBabel11261919463D

 17 17  0  0  0  0  0  0  0  0999 V2000
   -1.4899   -0.0724   -0.0330 C   0  0  0  0  0  0  0  0  0  0  0  0
   -2.8420   -0.1123    0.0672 N   0  0  0  0  0  0  0  0  0  0  0  0
   -3.9594   -0.1411    0.1502 N   0  0  0  0  0  0  0  0  0  0  0  0
   -0.8318    1.1835    0.0039 C   0  0  0  0  0  0  0  0  0  0  0  0
    0.5315    1.2200   -0.0965 C   0  0  0  0  0  0  0  0  0  0  0  0
    1.2678    0.0091   -0.2355 C   0  0  0  0  0  0  0  0  0  0  0  0
    2.5756    0.1559   -0.3231 O   0  0  0  0  0  0  0  0  0  0  0  0
    3.4481   -0.9863   -0.4664 C   0  0  0  0  0  0  0  0  0  0  0  0
    0.5952   -1.2417   -0.2716 C   0  0  0  0  0  0  0  0  0  0  0  0
   -0.7769   -1.2891   -0.1711 C   0  0  0  0  0  0  0  0  0  0  0  0
   -1.5267    2.2754    0.1318 H   0  0  0  0  0  0  0  0  0  0  0  0
    1.0780    2.1555   -0.0730 H   0  0  0  0  0  0  0  0  0  0  0  0
    4.4527   -0.5708   -0.5080 H   0  0  0  0  0  0  0  0  0  0  0  0
    3.2270   -1.5210   -1.3943 H   0  0  0  0  0  0  0  0  0  0  0  0
    3.3533   -1.6491    0.3983 H   0  0  0  0  0  0  0  0  0  0  0  0
    1.1497   -2.1653   -0.3777 H   0  0  0  0  0  0  0  0  0  0  0  0
   -1.3072   -2.2350   -0.1967 H   0  0  0  0  0  0  0  0  0  0  0  0
  1  4  1  0  0  0  0
  1  2  1  0  0  0  0
  2  3  1  0  0  0  0
  4 11  1  0  0  0  0
  5 12  1  0  0  0  0
  5  4  2  0  0  0  0
  6  5  1  0  0  0  0
  7  6  1  0  0  0  0
  8  7  1  0  0  0  0
  8 15  1  0  0  0  0
  9  6  2  0  0  0  0
  9 10  1  0  0  0  0
 10  1  2  0  0  0  0
 13  8  1  0  0  0  0
 14  8  1  0  0  0  0
 16  9  1  0  0  0  0
 17 10  1  0  0  0  0
M  RAD  2   2   2   3   3
M  END
