Coordinates from ORCA-job 4-MeOPhN2+_B3LYPG-6-31G_dp-d09-49-n800
 OpenBabel11261919463D

 17 17  0  0  0  0  0  0  0  0999 V2000
   -1.4963   -0.0513   -0.0310 C   0  0  0  0  0  0  0  0  0  0  0  0
   -2.8498   -0.0946    0.0694 N   0  0  0  0  0  0  0  0  0  0  0  0
   -3.9672   -0.1257    0.1524 N   0  0  0  0  0  0  0  0  0  0  0  0
   -0.8484    1.2143    0.0073 C   0  0  0  0  0  0  0  0  0  0  0  0
    0.5191    1.2315   -0.0954 C   0  0  0  0  0  0  0  0  0  0  0  0
    1.2569    0.0232   -0.2347 C   0  0  0  0  0  0  0  0  0  0  0  0
    2.5648    0.1705   -0.3222 O   0  0  0  0  0  0  0  0  0  0  0  0
    3.4369   -0.9719   -0.4641 C   0  0  0  0  0  0  0  0  0  0  0  0
    0.5840   -1.2262   -0.2704 C   0  0  0  0  0  0  0  0  0  0  0  0
   -0.7886   -1.2691   -0.1693 C   0  0  0  0  0  0  0  0  0  0  0  0
   -1.3477    2.0112    0.1014 H   0  0  0  0  0  0  0  0  0  0  0  0
    1.0674    2.1667   -0.0718 H   0  0  0  0  0  0  0  0  0  0  0  0
    4.4418   -0.5570   -0.5057 H   0  0  0  0  0  0  0  0  0  0  0  0
    3.2160   -1.5076   -1.3916 H   0  0  0  0  0  0  0  0  0  0  0  0
    3.3415   -1.6339    0.4012 H   0  0  0  0  0  0  0  0  0  0  0  0
    1.1362   -2.1513   -0.3766 H   0  0  0  0  0  0  0  0  0  0  0  0
   -1.3217   -2.2134   -0.1946 H   0  0  0  0  0  0  0  0  0  0  0  0
  1  4  1  0  0  0  0
  1  2  1  0  0  0  0
  2  3  1  0  0  0  0
  4 11  1  0  0  0  0
  5 12  1  0  0  0  0
  5  4  2  0  0  0  0
  6  5  1  0  0  0  0
  7  6  1  0  0  0  0
  8  7  1  0  0  0  0
  8 15  1  0  0  0  0
  9  6  2  0  0  0  0
  9 10  1  0  0  0  0
 10  1  2  0  0  0  0
 13  8  1  0  0  0  0
 14  8  1  0  0  0  0
 16  9  1  0  0  0  0
 17 10  1  0  0  0  0
M  RAD  2   2   2   3   3
M  END
