Coordinates from ORCA-job 4-MeOPhN2+_B3LYPG-6-31G_dp-d09-49-n800
 OpenBabel11261919463D

 17 16  0  0  0  0  0  0  0  0999 V2000
   -1.4859   -0.0867   -0.0344 C   0  0  0  0  0  0  0  0  0  0  0  0
   -2.8371   -0.1216    0.0665 N   0  0  0  0  0  0  0  0  0  0  0  0
   -3.9542   -0.1468    0.1501 N   0  0  0  0  0  0  0  0  0  0  0  0
   -0.8185    1.1599    0.0012 C   0  0  0  0  0  0  0  0  0  0  0  0
    0.5402    1.2129   -0.0980 C   0  0  0  0  0  0  0  0  0  0  0  0
    1.2760   -0.0002   -0.2372 C   0  0  0  0  0  0  0  0  0  0  0  0
    2.5834    0.1460   -0.3247 O   0  0  0  0  0  0  0  0  0  0  0  0
    3.4564   -0.9963   -0.4674 C   0  0  0  0  0  0  0  0  0  0  0  0
    0.6028   -1.2517   -0.2733 C   0  0  0  0  0  0  0  0  0  0  0  0
   -0.7691   -1.3024   -0.1729 C   0  0  0  0  0  0  0  0  0  0  0  0
   -1.6523    2.4466    0.1535 H   0  0  0  0  0  0  0  0  0  0  0  0
    1.0844    2.1495   -0.0741 H   0  0  0  0  0  0  0  0  0  0  0  0
    4.4608   -0.5803   -0.5087 H   0  0  0  0  0  0  0  0  0  0  0  0
    3.2356   -1.5310   -1.3954 H   0  0  0  0  0  0  0  0  0  0  0  0
    3.3613   -1.6586    0.3976 H   0  0  0  0  0  0  0  0  0  0  0  0
    1.1587   -2.1744   -0.3795 H   0  0  0  0  0  0  0  0  0  0  0  0
   -1.2974   -2.2497   -0.1988 H   0  0  0  0  0  0  0  0  0  0  0  0
  1  4  1  0  0  0  0
  1  2  1  0  0  0  0
  2  3  1  0  0  0  0
  5 12  1  0  0  0  0
  5  4  2  0  0  0  0
  6  5  1  0  0  0  0
  7  6  1  0  0  0  0
  8  7  1  0  0  0  0
  8 15  1  0  0  0  0
  9  6  2  0  0  0  0
  9 10  1  0  0  0  0
 10  1  2  0  0  0  0
 13  8  1  0  0  0  0
 14  8  1  0  0  0  0
 16  9  1  0  0  0  0
 17 10  1  0  0  0  0
M  RAD  4   2   2   3   3   4   2  11   2
M  END
