Coordinates from ORCA-job 4-MeOPhN2+_B3LYPG-6-31G_dp-d09-49-n800
 OpenBabel11261919463D

 17 16  0  0  0  0  0  0  0  0999 V2000
   -1.4583   -0.1405   -0.0402 C   0  0  0  0  0  0  0  0  0  0  0  0
   -2.8093   -0.1615    0.0618 N   0  0  0  0  0  0  0  0  0  0  0  0
   -3.9258   -0.1763    0.1463 N   0  0  0  0  0  0  0  0  0  0  0  0
   -0.7627    1.0772   -0.0091 C   0  0  0  0  0  0  0  0  0  0  0  0
    0.5802    1.1736   -0.1043 C   0  0  0  0  0  0  0  0  0  0  0  0
    1.3182   -0.0470   -0.2443 C   0  0  0  0  0  0  0  0  0  0  0  0
    2.6234    0.0976   -0.3317 O   0  0  0  0  0  0  0  0  0  0  0  0
    3.4986   -1.0453   -0.4736 C   0  0  0  0  0  0  0  0  0  0  0  0
    0.6395   -1.2982   -0.2797 C   0  0  0  0  0  0  0  0  0  0  0  0
   -0.7316   -1.3557   -0.1796 C   0  0  0  0  0  0  0  0  0  0  0  0
   -2.2733    3.2165    0.2549 H   0  0  0  0  0  0  0  0  0  0  0  0
    1.1228    2.1131   -0.0802 H   0  0  0  0  0  0  0  0  0  0  0  0
    4.5022   -0.6273   -0.5146 H   0  0  0  0  0  0  0  0  0  0  0  0
    3.2778   -1.5796   -1.4016 H   0  0  0  0  0  0  0  0  0  0  0  0
    3.4028   -1.7061    0.3921 H   0  0  0  0  0  0  0  0  0  0  0  0
    1.1978   -2.2195   -0.3860 H   0  0  0  0  0  0  0  0  0  0  0  0
   -1.2573   -2.3057   -0.2058 H   0  0  0  0  0  0  0  0  0  0  0  0
  1  4  1  0  0  0  0
  1  2  1  0  0  0  0
  2  3  1  0  0  0  0
  5 12  1  0  0  0  0
  5  4  2  0  0  0  0
  6  5  1  0  0  0  0
  7  6  1  0  0  0  0
  8  7  1  0  0  0  0
  8 15  1  0  0  0  0
  9  6  2  0  0  0  0
  9 10  1  0  0  0  0
 10  1  2  0  0  0  0
 13  8  1  0  0  0  0
 14  8  1  0  0  0  0
 16  9  1  0  0  0  0
 17 10  1  0  0  0  0
M  RAD  4   2   2   3   3   4   2  11   2
M  END
