Coordinates from ORCA-job 4-MeOPhN2+_B3LYPG-6-31G_dp-d09-49-n800
 OpenBabel11261919463D

 17 16  0  0  0  0  0  0  0  0999 V2000
   -1.4793   -0.1058   -0.0362 C   0  0  0  0  0  0  0  0  0  0  0  0
   -2.8297   -0.1335    0.0654 N   0  0  0  0  0  0  0  0  0  0  0  0
   -3.9466   -0.1534    0.1496 N   0  0  0  0  0  0  0  0  0  0  0  0
   -0.7989    1.1279   -0.0025 C   0  0  0  0  0  0  0  0  0  0  0  0
    0.5530    1.2020   -0.0999 C   0  0  0  0  0  0  0  0  0  0  0  0
    1.2888   -0.0144   -0.2395 C   0  0  0  0  0  0  0  0  0  0  0  0
    2.5954    0.1313   -0.3269 O   0  0  0  0  0  0  0  0  0  0  0  0
    3.4693   -1.0111   -0.4692 C   0  0  0  0  0  0  0  0  0  0  0  0
    0.6139   -1.2661   -0.2755 C   0  0  0  0  0  0  0  0  0  0  0  0
   -0.7577   -1.3206   -0.1752 C   0  0  0  0  0  0  0  0  0  0  0  0
   -1.8414    2.6887    0.1845 H   0  0  0  0  0  0  0  0  0  0  0  0
    1.0947    2.1403   -0.0756 H   0  0  0  0  0  0  0  0  0  0  0  0
    4.4734   -0.5941   -0.5102 H   0  0  0  0  0  0  0  0  0  0  0  0
    3.2489   -1.5457   -1.3972 H   0  0  0  0  0  0  0  0  0  0  0  0
    3.3740   -1.6728    0.3960 H   0  0  0  0  0  0  0  0  0  0  0  0
    1.1713   -2.1879   -0.3818 H   0  0  0  0  0  0  0  0  0  0  0  0
   -1.2841   -2.2694   -0.2013 H   0  0  0  0  0  0  0  0  0  0  0  0
  1  4  1  0  0  0  0
  1  2  1  0  0  0  0
  2  3  1  0  0  0  0
  5 12  1  0  0  0  0
  5  4  2  0  0  0  0
  6  5  1  0  0  0  0
  7  6  1  0  0  0  0
  8  7  1  0  0  0  0
  8 15  1  0  0  0  0
  9  6  2  0  0  0  0
  9 10  1  0  0  0  0
 10  1  2  0  0  0  0
 13  8  1  0  0  0  0
 14  8  1  0  0  0  0
 16  9  1  0  0  0  0
 17 10  1  0  0  0  0
M  RAD  4   2   2   3   3   4   2  11   2
M  END
