Coordinates from ORCA-job 4-MeOPhN2+_B3LYPG-6-31G_dp-d09-49-n800
 OpenBabel11261919463D

 17 16  0  0  0  0  0  0  0  0999 V2000
   -1.4215   -0.2315   -0.0488 C   0  0  0  0  0  0  0  0  0  0  0  0
   -2.7753   -0.2759    0.0520 N   0  0  0  0  0  0  0  0  0  0  0  0
   -3.8918   -0.3105    0.1350 N   0  0  0  0  0  0  0  0  0  0  0  0
   -0.7472    0.9961   -0.0147 C   0  0  0  0  0  0  0  0  0  0  0  0
    0.5947    1.1007   -0.1092 C   0  0  0  0  0  0  0  0  0  0  0  0
    1.3509   -0.1101   -0.2504 C   0  0  0  0  0  0  0  0  0  0  0  0
    2.6552    0.0486   -0.3367 O   0  0  0  0  0  0  0  0  0  0  0  0
    3.5422   -1.0845   -0.4801 C   0  0  0  0  0  0  0  0  0  0  0  0
    0.6862   -1.3694   -0.2881 C   0  0  0  0  0  0  0  0  0  0  0  0
   -0.6833   -1.4418   -0.1893 C   0  0  0  0  0  0  0  0  0  0  0  0
   -2.8795    4.3564    0.3760 H   0  0  0  0  0  0  0  0  0  0  0  0
    1.1363    2.0434   -0.0846 H   0  0  0  0  0  0  0  0  0  0  0  0
    4.5416   -0.6565   -0.5198 H   0  0  0  0  0  0  0  0  0  0  0  0
    3.3276   -1.6199   -1.4090 H   0  0  0  0  0  0  0  0  0  0  0  0
    3.4529   -1.7482    0.3843 H   0  0  0  0  0  0  0  0  0  0  0  0
    1.2557   -2.2839   -0.3951 H   0  0  0  0  0  0  0  0  0  0  0  0
   -1.1998   -2.3976   -0.2170 H   0  0  0  0  0  0  0  0  0  0  0  0
  1  4  1  0  0  0  0
  1  2  1  0  0  0  0
  2  3  1  0  0  0  0
  5 12  1  0  0  0  0
  5  4  2  0  0  0  0
  6  5  1  0  0  0  0
  7  6  1  0  0  0  0
  8  7  1  0  0  0  0
  8 15  1  0  0  0  0
  9  6  2  0  0  0  0
  9 10  1  0  0  0  0
 10  1  2  0  0  0  0
 13  8  1  0  0  0  0
 14  8  1  0  0  0  0
 16  9  1  0  0  0  0
 17 10  1  0  0  0  0
M  RAD  4   2   2   3   3   4   2  11   2
M  END
