Coordinates from ORCA-job 4-MeOPhN2+_B3LYPG-6-31G_dp-d09-49-n800
 OpenBabel11261919463D

 17 16  0  0  0  0  0  0  0  0999 V2000
   -1.4226   -0.2965   -0.0529 C   0  0  0  0  0  0  0  0  0  0  0  0
   -2.7764   -0.3629    0.0463 N   0  0  0  0  0  0  0  0  0  0  0  0
   -3.8924   -0.4143    0.1281 N   0  0  0  0  0  0  0  0  0  0  0  0
   -0.7712    0.9434   -0.0158 C   0  0  0  0  0  0  0  0  0  0  0  0
    0.5701    1.0651   -0.1091 C   0  0  0  0  0  0  0  0  0  0  0  0
    1.3455   -0.1329   -0.2512 C   0  0  0  0  0  0  0  0  0  0  0  0
    2.6479    0.0457   -0.3360 O   0  0  0  0  0  0  0  0  0  0  0  0
    3.5514   -1.0736   -0.4803 C   0  0  0  0  0  0  0  0  0  0  0  0
    0.7010   -1.4026   -0.2915 C   0  0  0  0  0  0  0  0  0  0  0  0
   -0.6673   -1.4961   -0.1943 C   0  0  0  0  0  0  0  0  0  0  0  0
   -2.9176    4.8747    0.4126 H   0  0  0  0  0  0  0  0  0  0  0  0
    1.0993    2.0151   -0.0827 H   0  0  0  0  0  0  0  0  0  0  0  0
    4.5446   -0.6312   -0.5185 H   0  0  0  0  0  0  0  0  0  0  0  0
    3.3458   -1.6109   -1.4102 H   0  0  0  0  0  0  0  0  0  0  0  0
    3.4714   -1.7403    0.3827 H   0  0  0  0  0  0  0  0  0  0  0  0
    1.2848   -2.3078   -0.3990 H   0  0  0  0  0  0  0  0  0  0  0  0
   -1.1692   -2.4596   -0.2239 H   0  0  0  0  0  0  0  0  0  0  0  0
  1  4  1  0  0  0  0
  1  2  1  0  0  0  0
  2  3  1  0  0  0  0
  5 12  1  0  0  0  0
  5  4  2  0  0  0  0
  6  5  1  0  0  0  0
  7  6  1  0  0  0  0
  8  7  1  0  0  0  0
  8 15  1  0  0  0  0
  9  6  2  0  0  0  0
  9 10  1  0  0  0  0
 10  1  2  0  0  0  0
 13  8  1  0  0  0  0
 14  8  1  0  0  0  0
 16  9  1  0  0  0  0
 17 10  1  0  0  0  0
M  RAD  4   2   2   3   3   4   2  11   2
M  END
