Coordinates from ORCA-job 4-MeOPhN2+_B3LYPG-6-31G_dp-d09-49-n800
 OpenBabel11261919463D

 17 16  0  0  0  0  0  0  0  0999 V2000
   -1.4811   -0.1013   -0.0357 C   0  0  0  0  0  0  0  0  0  0  0  0
   -2.8316   -0.1306    0.0657 N   0  0  0  0  0  0  0  0  0  0  0  0
   -3.9485   -0.1517    0.1498 N   0  0  0  0  0  0  0  0  0  0  0  0
   -0.8037    1.1353   -0.0016 C   0  0  0  0  0  0  0  0  0  0  0  0
    0.5499    1.2048   -0.0995 C   0  0  0  0  0  0  0  0  0  0  0  0
    1.2855   -0.0108   -0.2390 C   0  0  0  0  0  0  0  0  0  0  0  0
    2.5924    0.1350   -0.3264 O   0  0  0  0  0  0  0  0  0  0  0  0
    3.4661   -1.0074   -0.4687 C   0  0  0  0  0  0  0  0  0  0  0  0
    0.6111   -1.2625   -0.2750 C   0  0  0  0  0  0  0  0  0  0  0  0
   -0.7605   -1.3163   -0.1747 C   0  0  0  0  0  0  0  0  0  0  0  0
   -1.7940    2.6292    0.1769 H   0  0  0  0  0  0  0  0  0  0  0  0
    1.0920    2.1427   -0.0753 H   0  0  0  0  0  0  0  0  0  0  0  0
    4.4702   -0.5907   -0.5098 H   0  0  0  0  0  0  0  0  0  0  0  0
    3.2456   -1.5421   -1.3967 H   0  0  0  0  0  0  0  0  0  0  0  0
    3.3707   -1.6692    0.3965 H   0  0  0  0  0  0  0  0  0  0  0  0
    1.1682   -2.1845   -0.3813 H   0  0  0  0  0  0  0  0  0  0  0  0
   -1.2873   -2.2647   -0.2007 H   0  0  0  0  0  0  0  0  0  0  0  0
  1  4  1  0  0  0  0
  1  2  1  0  0  0  0
  2  3  1  0  0  0  0
  5 12  1  0  0  0  0
  5  4  2  0  0  0  0
  6  5  1  0  0  0  0
  7  6  1  0  0  0  0
  8  7  1  0  0  0  0
  8 15  1  0  0  0  0
  9  6  2  0  0  0  0
  9 10  1  0  0  0  0
 10  1  2  0  0  0  0
 13  8  1  0  0  0  0
 14  8  1  0  0  0  0
 16  9  1  0  0  0  0
 17 10  1  0  0  0  0
M  RAD  4   2   2   3   3   4   2  11   2
M  END
