Coordinates from ORCA-job 4-MeOPhN2+_B3LYPG-6-31G_dp-d09-49-n800
 OpenBabel11261919463D

 17 16  0  0  0  0  0  0  0  0999 V2000
   -1.4251   -0.3294   -0.0550 C   0  0  0  0  0  0  0  0  0  0  0  0
   -2.7787   -0.4071    0.0430 N   0  0  0  0  0  0  0  0  0  0  0  0
   -3.8943   -0.4672    0.1240 N   0  0  0  0  0  0  0  0  0  0  0  0
   -0.7855    0.9166   -0.0168 C   0  0  0  0  0  0  0  0  0  0  0  0
    0.5553    1.0484   -0.1093 C   0  0  0  0  0  0  0  0  0  0  0  0
    1.3408   -0.1427   -0.2515 C   0  0  0  0  0  0  0  0  0  0  0  0
    2.6420    0.0467   -0.3356 O   0  0  0  0  0  0  0  0  0  0  0  0
    3.5544   -1.0651   -0.4801 C   0  0  0  0  0  0  0  0  0  0  0  0
    0.7072   -1.4178   -0.2927 C   0  0  0  0  0  0  0  0  0  0  0  0
   -0.6603   -1.5228   -0.1964 C   0  0  0  0  0  0  0  0  0  0  0  0
   -2.9098    5.1133    0.4292 H   0  0  0  0  0  0  0  0  0  0  0  0
    1.0771    2.0026   -0.0823 H   0  0  0  0  0  0  0  0  0  0  0  0
    4.5441   -0.6148   -0.5176 H   0  0  0  0  0  0  0  0  0  0  0  0
    3.3536   -1.6038   -1.4102 H   0  0  0  0  0  0  0  0  0  0  0  0
    3.4796   -1.7330    0.3826 H   0  0  0  0  0  0  0  0  0  0  0  0
    1.2988   -2.3180   -0.4001 H   0  0  0  0  0  0  0  0  0  0  0  0
   -1.1542   -2.4905   -0.2267 H   0  0  0  0  0  0  0  0  0  0  0  0
  1  4  1  0  0  0  0
  1  2  1  0  0  0  0
  2  3  1  0  0  0  0
  5 12  1  0  0  0  0
  5  4  2  0  0  0  0
  6  5  1  0  0  0  0
  7  6  1  0  0  0  0
  8  7  1  0  0  0  0
  8 15  1  0  0  0  0
  9  6  2  0  0  0  0
  9 10  1  0  0  0  0
 10  1  2  0  0  0  0
 13  8  1  0  0  0  0
 14  8  1  0  0  0  0
 16  9  1  0  0  0  0
 17 10  1  0  0  0  0
M  RAD  4   2   2   3   3   4   2  11   2
M  END
