Coordinates from ORCA-job 4-MeOPhN2+_B3LYPG-6-31G_dp-d09-49-n800
 OpenBabel11261919463D

 17 16  0  0  0  0  0  0  0  0999 V2000
   -1.4236   -0.3101   -0.0538 C   0  0  0  0  0  0  0  0  0  0  0  0
   -2.7773   -0.3812    0.0450 N   0  0  0  0  0  0  0  0  0  0  0  0
   -3.8931   -0.4361    0.1265 N   0  0  0  0  0  0  0  0  0  0  0  0
   -0.7769    0.9322   -0.0162 C   0  0  0  0  0  0  0  0  0  0  0  0
    0.5642    1.0582   -0.1092 C   0  0  0  0  0  0  0  0  0  0  0  0
    1.3437   -0.1370   -0.2513 C   0  0  0  0  0  0  0  0  0  0  0  0
    2.6457    0.0460   -0.3358 O   0  0  0  0  0  0  0  0  0  0  0  0
    3.5527   -1.0704   -0.4803 C   0  0  0  0  0  0  0  0  0  0  0  0
    0.7036   -1.4089   -0.2920 C   0  0  0  0  0  0  0  0  0  0  0  0
   -0.6643   -1.5073   -0.1952 C   0  0  0  0  0  0  0  0  0  0  0  0
   -2.9162    4.9750    0.4196 H   0  0  0  0  0  0  0  0  0  0  0  0
    1.0903    2.0100   -0.0825 H   0  0  0  0  0  0  0  0  0  0  0  0
    4.5445   -0.6247   -0.5181 H   0  0  0  0  0  0  0  0  0  0  0  0
    3.3491   -1.6082   -1.4103 H   0  0  0  0  0  0  0  0  0  0  0  0
    3.4748   -1.7376    0.3826 H   0  0  0  0  0  0  0  0  0  0  0  0
    1.2907   -2.3121   -0.3995 H   0  0  0  0  0  0  0  0  0  0  0  0
   -1.1629   -2.4725   -0.2251 H   0  0  0  0  0  0  0  0  0  0  0  0
  1  4  1  0  0  0  0
  1  2  1  0  0  0  0
  2  3  1  0  0  0  0
  5 12  1  0  0  0  0
  5  4  2  0  0  0  0
  6  5  1  0  0  0  0
  7  6  1  0  0  0  0
  8  7  1  0  0  0  0
  8 15  1  0  0  0  0
  9  6  2  0  0  0  0
  9 10  1  0  0  0  0
 10  1  2  0  0  0  0
 13  8  1  0  0  0  0
 14  8  1  0  0  0  0
 16  9  1  0  0  0  0
 17 10  1  0  0  0  0
M  RAD  4   2   2   3   3   4   2  11   2
M  END
