Coordinates from ORCA-job 4-MeOPhN2+_B3LYPG-6-31G_dp-d09-49-n800
 OpenBabel11261919463D

 17 16  0  0  0  0  0  0  0  0999 V2000
   -1.4269   -0.1968   -0.0461 C   0  0  0  0  0  0  0  0  0  0  0  0
   -2.7801   -0.2304    0.0553 N   0  0  0  0  0  0  0  0  0  0  0  0
   -3.8967   -0.2566    0.1390 N   0  0  0  0  0  0  0  0  0  0  0  0
   -0.7408    1.0242   -0.0134 C   0  0  0  0  0  0  0  0  0  0  0  0
    0.6008    1.1234   -0.1083 C   0  0  0  0  0  0  0  0  0  0  0  0
    1.3481   -0.0932   -0.2490 C   0  0  0  0  0  0  0  0  0  0  0  0
    2.6529    0.0568   -0.3360 O   0  0  0  0  0  0  0  0  0  0  0  0
    3.5330   -1.0821   -0.4791 C   0  0  0  0  0  0  0  0  0  0  0  0
    0.6745   -1.3478   -0.2857 C   0  0  0  0  0  0  0  0  0  0  0  0
   -0.6955   -1.4112   -0.1862 C   0  0  0  0  0  0  0  0  0  0  0  0
   -2.7794    4.0165    0.3455 H   0  0  0  0  0  0  0  0  0  0  0  0
    1.1464    2.0633   -0.0842 H   0  0  0  0  0  0  0  0  0  0  0  0
    4.5349   -0.6601   -0.5195 H   0  0  0  0  0  0  0  0  0  0  0  0
    3.3145   -1.6164   -1.4077 H   0  0  0  0  0  0  0  0  0  0  0  0
    3.4397   -1.7445    0.3857 H   0  0  0  0  0  0  0  0  0  0  0  0
    1.2376   -2.2662   -0.3925 H   0  0  0  0  0  0  0  0  0  0  0  0
   -1.2180   -2.3637   -0.2132 H   0  0  0  0  0  0  0  0  0  0  0  0
  1  4  1  0  0  0  0
  1  2  1  0  0  0  0
  2  3  1  0  0  0  0
  5 12  1  0  0  0  0
  5  4  2  0  0  0  0
  6  5  1  0  0  0  0
  7  6  1  0  0  0  0
  8  7  1  0  0  0  0
  8 15  1  0  0  0  0
  9  6  2  0  0  0  0
  9 10  1  0  0  0  0
 10  1  2  0  0  0  0
 13  8  1  0  0  0  0
 14  8  1  0  0  0  0
 16  9  1  0  0  0  0
 17 10  1  0  0  0  0
M  RAD  4   2   2   3   3   4   2  11   2
M  END
