Coordinates from ORCA-job 4-MeOPhN2+_B3LYPG-6-31G_dp-d09-49-n800
 OpenBabel11261919463D

 17 16  0  0  0  0  0  0  0  0999 V2000
   -1.4695   -0.1248   -0.0382 C   0  0  0  0  0  0  0  0  0  0  0  0
   -2.8200   -0.1473    0.0637 N   0  0  0  0  0  0  0  0  0  0  0  0
   -3.9365   -0.1631    0.1481 N   0  0  0  0  0  0  0  0  0  0  0  0
   -0.7786    1.0982   -0.0062 C   0  0  0  0  0  0  0  0  0  0  0  0
    0.5675    1.1879   -0.1023 C   0  0  0  0  0  0  0  0  0  0  0  0
    1.3041   -0.0312   -0.2421 C   0  0  0  0  0  0  0  0  0  0  0  0
    2.6099    0.1139   -0.3295 O   0  0  0  0  0  0  0  0  0  0  0  0
    3.4848   -1.0287   -0.4715 C   0  0  0  0  0  0  0  0  0  0  0  0
    0.6271   -1.2827   -0.2777 C   0  0  0  0  0  0  0  0  0  0  0  0
   -0.7443   -1.3396   -0.1776 C   0  0  0  0  0  0  0  0  0  0  0  0
   -2.0650    2.9628    0.2211 H   0  0  0  0  0  0  0  0  0  0  0  0
    1.1086    2.1273   -0.0778 H   0  0  0  0  0  0  0  0  0  0  0  0
    4.4884   -0.6109   -0.5124 H   0  0  0  0  0  0  0  0  0  0  0  0
    3.2642   -1.5632   -1.3994 H   0  0  0  0  0  0  0  0  0  0  0  0
    3.3892   -1.6898    0.3942 H   0  0  0  0  0  0  0  0  0  0  0  0
    1.1851   -2.2041   -0.3841 H   0  0  0  0  0  0  0  0  0  0  0  0
   -1.2699   -2.2892   -0.2038 H   0  0  0  0  0  0  0  0  0  0  0  0
  1  4  1  0  0  0  0
  1  2  1  0  0  0  0
  2  3  1  0  0  0  0
  5 12  1  0  0  0  0
  5  4  2  0  0  0  0
  6  5  1  0  0  0  0
  7  6  1  0  0  0  0
  8  7  1  0  0  0  0
  8 15  1  0  0  0  0
  9  6  2  0  0  0  0
  9 10  1  0  0  0  0
 10  1  2  0  0  0  0
 13  8  1  0  0  0  0
 14  8  1  0  0  0  0
 16  9  1  0  0  0  0
 17 10  1  0  0  0  0
M  RAD  4   2   2   3   3   4   2  11   2
M  END
