Coordinates from ORCA-job 4-MeOPhN2+_B3LYPG-6-31G_dp-d09-49-n800
 OpenBabel11261919463D

 17 16  0  0  0  0  0  0  0  0999 V2000
   -1.4213   -0.2349   -0.0491 C   0  0  0  0  0  0  0  0  0  0  0  0
   -2.7751   -0.2804    0.0517 N   0  0  0  0  0  0  0  0  0  0  0  0
   -3.8916   -0.3159    0.1349 N   0  0  0  0  0  0  0  0  0  0  0  0
   -0.7482    0.9934   -0.0148 C   0  0  0  0  0  0  0  0  0  0  0  0
    0.5937    1.0987   -0.1093 C   0  0  0  0  0  0  0  0  0  0  0  0
    1.3508   -0.1115   -0.2505 C   0  0  0  0  0  0  0  0  0  0  0  0
    2.6551    0.0481   -0.3367 O   0  0  0  0  0  0  0  0  0  0  0  0
    3.5429   -1.0843   -0.4801 C   0  0  0  0  0  0  0  0  0  0  0  0
    0.6871   -1.3713   -0.2883 C   0  0  0  0  0  0  0  0  0  0  0  0
   -0.6823   -1.4447   -0.1896 C   0  0  0  0  0  0  0  0  0  0  0  0
   -2.8848    4.3864    0.3784 H   0  0  0  0  0  0  0  0  0  0  0  0
    1.1348    2.0417   -0.0846 H   0  0  0  0  0  0  0  0  0  0  0  0
    4.5420   -0.6556   -0.5197 H   0  0  0  0  0  0  0  0  0  0  0  0
    3.3288   -1.6198   -1.4090 H   0  0  0  0  0  0  0  0  0  0  0  0
    3.4540   -1.7482    0.3842 H   0  0  0  0  0  0  0  0  0  0  0  0
    1.2573   -2.2854   -0.3954 H   0  0  0  0  0  0  0  0  0  0  0  0
   -1.1981   -2.4009   -0.2175 H   0  0  0  0  0  0  0  0  0  0  0  0
  1  4  1  0  0  0  0
  1  2  1  0  0  0  0
  2  3  1  0  0  0  0
  5 12  1  0  0  0  0
  5  4  2  0  0  0  0
  6  5  1  0  0  0  0
  7  6  1  0  0  0  0
  8  7  1  0  0  0  0
  8 15  1  0  0  0  0
  9  6  2  0  0  0  0
  9 10  1  0  0  0  0
 10  1  2  0  0  0  0
 13  8  1  0  0  0  0
 14  8  1  0  0  0  0
 16  9  1  0  0  0  0
 17 10  1  0  0  0  0
M  RAD  4   2   2   3   3   4   2  11   2
M  END
