Coordinates from ORCA-job 4-MeOPhN2+_B3LYPG-6-31G_dp-d09-49-n800
 OpenBabel11261919463D

 17 16  0  0  0  0  0  0  0  0999 V2000
   -1.4267   -0.1975   -0.0462 C   0  0  0  0  0  0  0  0  0  0  0  0
   -2.7800   -0.2312    0.0552 N   0  0  0  0  0  0  0  0  0  0  0  0
   -3.8965   -0.2576    0.1391 N   0  0  0  0  0  0  0  0  0  0  0  0
   -0.7406    1.0234   -0.0135 C   0  0  0  0  0  0  0  0  0  0  0  0
    0.6009    1.1231   -0.1083 C   0  0  0  0  0  0  0  0  0  0  0  0
    1.3484   -0.0936   -0.2491 C   0  0  0  0  0  0  0  0  0  0  0  0
    2.6532    0.0565   -0.3360 O   0  0  0  0  0  0  0  0  0  0  0  0
    3.5333   -1.0824   -0.4792 C   0  0  0  0  0  0  0  0  0  0  0  0
    0.6748   -1.3482   -0.2857 C   0  0  0  0  0  0  0  0  0  0  0  0
   -0.6952   -1.4119   -0.1864 C   0  0  0  0  0  0  0  0  0  0  0  0
   -2.7835    4.0247    0.3464 H   0  0  0  0  0  0  0  0  0  0  0  0
    1.1463    2.0631   -0.0842 H   0  0  0  0  0  0  0  0  0  0  0  0
    4.5352   -0.6604   -0.5195 H   0  0  0  0  0  0  0  0  0  0  0  0
    3.3148   -1.6167   -1.4078 H   0  0  0  0  0  0  0  0  0  0  0  0
    3.4400   -1.7448    0.3857 H   0  0  0  0  0  0  0  0  0  0  0  0
    1.2380   -2.2665   -0.3926 H   0  0  0  0  0  0  0  0  0  0  0  0
   -1.2174   -2.3645   -0.2134 H   0  0  0  0  0  0  0  0  0  0  0  0
  1  4  1  0  0  0  0
  1  2  1  0  0  0  0
  2  3  1  0  0  0  0
  5 12  1  0  0  0  0
  5  4  2  0  0  0  0
  6  5  1  0  0  0  0
  7  6  1  0  0  0  0
  8  7  1  0  0  0  0
  8 15  1  0  0  0  0
  9  6  2  0  0  0  0
  9 10  1  0  0  0  0
 10  1  2  0  0  0  0
 13  8  1  0  0  0  0
 14  8  1  0  0  0  0
 16  9  1  0  0  0  0
 17 10  1  0  0  0  0
M  RAD  4   2   2   3   3   4   2  11   2
M  END
