Coordinates from ORCA-job 4-MeOPhN2+_B3LYPG-6-31G_dp-d09-49-n800
 OpenBabel11261919463D

 17 16  0  0  0  0  0  0  0  0999 V2000
   -1.4266   -0.3431   -0.0558 C   0  0  0  0  0  0  0  0  0  0  0  0
   -2.7801   -0.4255    0.0415 N   0  0  0  0  0  0  0  0  0  0  0  0
   -3.8955   -0.4891    0.1219 N   0  0  0  0  0  0  0  0  0  0  0  0
   -0.7914    0.9048   -0.0173 C   0  0  0  0  0  0  0  0  0  0  0  0
    0.5488    1.0419   -0.1095 C   0  0  0  0  0  0  0  0  0  0  0  0
    1.3386   -0.1464   -0.2517 C   0  0  0  0  0  0  0  0  0  0  0  0
    2.6393    0.0476   -0.3355 O   0  0  0  0  0  0  0  0  0  0  0  0
    3.5554   -1.0611   -0.4799 C   0  0  0  0  0  0  0  0  0  0  0  0
    0.7096   -1.4238   -0.2931 C   0  0  0  0  0  0  0  0  0  0  0  0
   -0.6576   -1.5340   -0.1971 C   0  0  0  0  0  0  0  0  0  0  0  0
   -2.9020    5.2086    0.4359 H   0  0  0  0  0  0  0  0  0  0  0  0
    1.0670    1.9980   -0.0822 H   0  0  0  0  0  0  0  0  0  0  0  0
    4.5436   -0.6075   -0.5172 H   0  0  0  0  0  0  0  0  0  0  0  0
    3.3566   -1.6004   -1.4101 H   0  0  0  0  0  0  0  0  0  0  0  0
    3.4827   -1.7293    0.3827 H   0  0  0  0  0  0  0  0  0  0  0  0
    1.3045   -2.3218   -0.4004 H   0  0  0  0  0  0  0  0  0  0  0  0
   -1.1478   -2.5035   -0.2277 H   0  0  0  0  0  0  0  0  0  0  0  0
  1  4  1  0  0  0  0
  1  2  1  0  0  0  0
  2  3  1  0  0  0  0
  5 12  1  0  0  0  0
  5  4  2  0  0  0  0
  6  5  1  0  0  0  0
  7  6  1  0  0  0  0
  8  7  1  0  0  0  0
  8 15  1  0  0  0  0
  9  6  2  0  0  0  0
  9 10  1  0  0  0  0
 10  1  2  0  0  0  0
 13  8  1  0  0  0  0
 14  8  1  0  0  0  0
 16  9  1  0  0  0  0
 17 10  1  0  0  0  0
M  RAD  4   2   2   3   3   4   2  11   2
M  END
