Coordinates from ORCA-job 4-MeOPhN2+_B3LYPG-6-31G_dp-d09-49-n800
 OpenBabel11261919463D

 17 17  0  0  0  0  0  0  0  0999 V2000
   -1.4919   -0.0655   -0.0323 C   0  0  0  0  0  0  0  0  0  0  0  0
   -2.8445   -0.1073    0.0677 N   0  0  0  0  0  0  0  0  0  0  0  0
   -3.9618   -0.1373    0.1506 N   0  0  0  0  0  0  0  0  0  0  0  0
   -0.8377    1.1944    0.0051 C   0  0  0  0  0  0  0  0  0  0  0  0
    0.5274    1.2235   -0.0960 C   0  0  0  0  0  0  0  0  0  0  0  0
    1.2642    0.0136   -0.2350 C   0  0  0  0  0  0  0  0  0  0  0  0
    2.5720    0.1606   -0.3226 O   0  0  0  0  0  0  0  0  0  0  0  0
    3.4443   -0.9816   -0.4657 C   0  0  0  0  0  0  0  0  0  0  0  0
    0.5916   -1.2368   -0.2710 C   0  0  0  0  0  0  0  0  0  0  0  0
   -0.7806   -1.2825   -0.1704 C   0  0  0  0  0  0  0  0  0  0  0  0
   -1.4681    2.1915    0.1217 H   0  0  0  0  0  0  0  0  0  0  0  0
    1.0749    2.1587   -0.0726 H   0  0  0  0  0  0  0  0  0  0  0  0
    4.4491   -0.5663   -0.5074 H   0  0  0  0  0  0  0  0  0  0  0  0
    3.2233   -1.5165   -1.3937 H   0  0  0  0  0  0  0  0  0  0  0  0
    3.3495   -1.6443    0.3990 H   0  0  0  0  0  0  0  0  0  0  0  0
    1.1453   -2.1609   -0.3771 H   0  0  0  0  0  0  0  0  0  0  0  0
   -1.3119   -2.2279   -0.1959 H   0  0  0  0  0  0  0  0  0  0  0  0
  1  4  1  0  0  0  0
  1  2  1  0  0  0  0
  2  3  1  0  0  0  0
  4 11  1  0  0  0  0
  5 12  1  0  0  0  0
  5  4  2  0  0  0  0
  6  5  1  0  0  0  0
  7  6  1  0  0  0  0
  8  7  1  0  0  0  0
  8 15  1  0  0  0  0
  9  6  2  0  0  0  0
  9 10  1  0  0  0  0
 10  1  2  0  0  0  0
 13  8  1  0  0  0  0
 14  8  1  0  0  0  0
 16  9  1  0  0  0  0
 17 10  1  0  0  0  0
M  RAD  2   2   2   3   3
M  END
