Coordinates from ORCA-job 4-MeOPhN2+_B3LYPG-6-31G_dp-d09-49-n800
 OpenBabel11261919463D

 17 16  0  0  0  0  0  0  0  0999 V2000
   -1.4210   -0.2625   -0.0508 C   0  0  0  0  0  0  0  0  0  0  0  0
   -2.7749   -0.3172    0.0492 N   0  0  0  0  0  0  0  0  0  0  0  0
   -3.8912   -0.3596    0.1318 N   0  0  0  0  0  0  0  0  0  0  0  0
   -0.7574    0.9708   -0.0152 C   0  0  0  0  0  0  0  0  0  0  0  0
    0.5843    1.0831   -0.1092 C   0  0  0  0  0  0  0  0  0  0  0  0
    1.3494   -0.1218   -0.2508 C   0  0  0  0  0  0  0  0  0  0  0  0
    2.6529    0.0459   -0.3365 O   0  0  0  0  0  0  0  0  0  0  0  0
    3.5474   -1.0809   -0.4804 C   0  0  0  0  0  0  0  0  0  0  0  0
    0.6939   -1.3860   -0.2898 C   0  0  0  0  0  0  0  0  0  0  0  0
   -0.6750   -1.4681   -0.1918 C   0  0  0  0  0  0  0  0  0  0  0  0
   -2.9124    4.6158    0.3951 H   0  0  0  0  0  0  0  0  0  0  0  0
    1.1204    2.0291   -0.0838 H   0  0  0  0  0  0  0  0  0  0  0  0
    4.5440   -0.6464   -0.5193 H   0  0  0  0  0  0  0  0  0  0  0  0
    3.3369   -1.6171   -1.4098 H   0  0  0  0  0  0  0  0  0  0  0  0
    3.4624   -1.7461    0.3833 H   0  0  0  0  0  0  0  0  0  0  0  0
    1.2701   -2.2962   -0.3971 H   0  0  0  0  0  0  0  0  0  0  0  0
   -1.1849   -2.4274   -0.2204 H   0  0  0  0  0  0  0  0  0  0  0  0
  1  4  1  0  0  0  0
  1  2  1  0  0  0  0
  2  3  1  0  0  0  0
  5 12  1  0  0  0  0
  5  4  2  0  0  0  0
  6  5  1  0  0  0  0
  7  6  1  0  0  0  0
  8  7  1  0  0  0  0
  8 15  1  0  0  0  0
  9  6  2  0  0  0  0
  9 10  1  0  0  0  0
 10  1  2  0  0  0  0
 13  8  1  0  0  0  0
 14  8  1  0  0  0  0
 16  9  1  0  0  0  0
 17 10  1  0  0  0  0
M  RAD  4   2   2   3   3   4   2  11   2
M  END
