Coordinates from ORCA-job 4-MeOPhN2+_B3LYPG-6-31G_dp-d09-49-n800
 OpenBabel11261919463D

 17 16  0  0  0  0  0  0  0  0999 V2000
   -1.4768   -0.1114   -0.0367 C   0  0  0  0  0  0  0  0  0  0  0  0
   -2.8272   -0.1373    0.0650 N   0  0  0  0  0  0  0  0  0  0  0  0
   -3.9439   -0.1557    0.1492 N   0  0  0  0  0  0  0  0  0  0  0  0
   -0.7929    1.1187   -0.0036 C   0  0  0  0  0  0  0  0  0  0  0  0
    0.5571    1.1982   -0.1005 C   0  0  0  0  0  0  0  0  0  0  0  0
    1.2931   -0.0191   -0.2402 C   0  0  0  0  0  0  0  0  0  0  0  0
    2.5994    0.1265   -0.3276 O   0  0  0  0  0  0  0  0  0  0  0  0
    3.4737   -1.0160   -0.4698 C   0  0  0  0  0  0  0  0  0  0  0  0
    0.6176   -1.2708   -0.2761 C   0  0  0  0  0  0  0  0  0  0  0  0
   -0.7540   -1.3261   -0.1759 C   0  0  0  0  0  0  0  0  0  0  0  0
   -1.9036    2.7658    0.1946 H   0  0  0  0  0  0  0  0  0  0  0  0
    1.0984    2.1369   -0.0761 H   0  0  0  0  0  0  0  0  0  0  0  0
    4.4776   -0.5987   -0.5109 H   0  0  0  0  0  0  0  0  0  0  0  0
    3.2532   -1.5506   -1.3979 H   0  0  0  0  0  0  0  0  0  0  0  0
    3.3783   -1.6775    0.3955 H   0  0  0  0  0  0  0  0  0  0  0  0
    1.1752   -2.1924   -0.3825 H   0  0  0  0  0  0  0  0  0  0  0  0
   -1.2800   -2.2752   -0.2020 H   0  0  0  0  0  0  0  0  0  0  0  0
  1  4  1  0  0  0  0
  1  2  1  0  0  0  0
  2  3  1  0  0  0  0
  5 12  1  0  0  0  0
  5  4  2  0  0  0  0
  6  5  1  0  0  0  0
  7  6  1  0  0  0  0
  8  7  1  0  0  0  0
  8 15  1  0  0  0  0
  9  6  2  0  0  0  0
  9 10  1  0  0  0  0
 10  1  2  0  0  0  0
 13  8  1  0  0  0  0
 14  8  1  0  0  0  0
 16  9  1  0  0  0  0
 17 10  1  0  0  0  0
M  RAD  4   2   2   3   3   4   2  11   2
M  END
