Coordinates from ORCA-job 4-MeOPhN2+_B3LYPG-6-31G_dp-d09-49-n800
 OpenBabel11261919463D

 17 16  0  0  0  0  0  0  0  0999 V2000
   -1.4404   -0.1650   -0.0433 C   0  0  0  0  0  0  0  0  0  0  0  0
   -2.7925   -0.1895    0.0586 N   0  0  0  0  0  0  0  0  0  0  0  0
   -3.9091   -0.2078    0.1426 N   0  0  0  0  0  0  0  0  0  0  0  0
   -0.7456    1.0516   -0.0121 C   0  0  0  0  0  0  0  0  0  0  0  0
    0.5958    1.1495   -0.1070 C   0  0  0  0  0  0  0  0  0  0  0  0
    1.3368   -0.0709   -0.2471 C   0  0  0  0  0  0  0  0  0  0  0  0
    2.6418    0.0742   -0.3344 O   0  0  0  0  0  0  0  0  0  0  0  0
    3.5180   -1.0681   -0.4768 C   0  0  0  0  0  0  0  0  0  0  0  0
    0.6580   -1.3226   -0.2826 C   0  0  0  0  0  0  0  0  0  0  0  0
   -0.7126   -1.3810   -0.1827 C   0  0  0  0  0  0  0  0  0  0  0  0
   -2.5668    3.6119    0.3042 H   0  0  0  0  0  0  0  0  0  0  0  0
    1.1415    2.0884   -0.0833 H   0  0  0  0  0  0  0  0  0  0  0  0
    4.5212   -0.6493   -0.5176 H   0  0  0  0  0  0  0  0  0  0  0  0
    3.2973   -1.6022   -1.4050 H   0  0  0  0  0  0  0  0  0  0  0  0
    3.4224   -1.7292    0.3888 H   0  0  0  0  0  0  0  0  0  0  0  0
    1.2172   -2.2434   -0.3889 H   0  0  0  0  0  0  0  0  0  0  0  0
   -1.2381   -2.3315   -0.2089 H   0  0  0  0  0  0  0  0  0  0  0  0
  1  4  1  0  0  0  0
  1  2  1  0  0  0  0
  2  3  1  0  0  0  0
  5 12  1  0  0  0  0
  5  4  2  0  0  0  0
  6  5  1  0  0  0  0
  7  6  1  0  0  0  0
  8  7  1  0  0  0  0
  8 15  1  0  0  0  0
  9  6  2  0  0  0  0
  9 10  1  0  0  0  0
 10  1  2  0  0  0  0
 13  8  1  0  0  0  0
 14  8  1  0  0  0  0
 16  9  1  0  0  0  0
 17 10  1  0  0  0  0
M  RAD  4   2   2   3   3   4   2  11   2
M  END
