Coordinates from ORCA-job 4-MeOPhN2+_B3LYPG-6-31G_dp-d09-49-n800
 OpenBabel11261919463D

 17 16  0  0  0  0  0  0  0  0999 V2000
   -1.4863   -0.0855   -0.0343 C   0  0  0  0  0  0  0  0  0  0  0  0
   -2.8375   -0.1209    0.0665 N   0  0  0  0  0  0  0  0  0  0  0  0
   -3.9547   -0.1464    0.1501 N   0  0  0  0  0  0  0  0  0  0  0  0
   -0.8197    1.1619    0.0014 C   0  0  0  0  0  0  0  0  0  0  0  0
    0.5394    1.2135   -0.0979 C   0  0  0  0  0  0  0  0  0  0  0  0
    1.2753    0.0006   -0.2371 C   0  0  0  0  0  0  0  0  0  0  0  0
    2.5827    0.1469   -0.3245 O   0  0  0  0  0  0  0  0  0  0  0  0
    3.4556   -0.9954   -0.4673 C   0  0  0  0  0  0  0  0  0  0  0  0
    0.6022   -1.2508   -0.2731 C   0  0  0  0  0  0  0  0  0  0  0  0
   -0.7697   -1.3013   -0.1728 C   0  0  0  0  0  0  0  0  0  0  0  0
   -1.6417    2.4325    0.1517 H   0  0  0  0  0  0  0  0  0  0  0  0
    1.0838    2.1500   -0.0740 H   0  0  0  0  0  0  0  0  0  0  0  0
    4.4601   -0.5795   -0.5087 H   0  0  0  0  0  0  0  0  0  0  0  0
    3.2349   -1.5302   -1.3953 H   0  0  0  0  0  0  0  0  0  0  0  0
    3.3606   -1.6578    0.3976 H   0  0  0  0  0  0  0  0  0  0  0  0
    1.1580   -2.1736   -0.3793 H   0  0  0  0  0  0  0  0  0  0  0  0
   -1.2982   -2.2485   -0.1986 H   0  0  0  0  0  0  0  0  0  0  0  0
  1  4  1  0  0  0  0
  1  2  1  0  0  0  0
  2  3  1  0  0  0  0
  5 12  1  0  0  0  0
  5  4  2  0  0  0  0
  6  5  1  0  0  0  0
  7  6  1  0  0  0  0
  8  7  1  0  0  0  0
  8 15  1  0  0  0  0
  9  6  2  0  0  0  0
  9 10  1  0  0  0  0
 10  1  2  0  0  0  0
 13  8  1  0  0  0  0
 14  8  1  0  0  0  0
 16  9  1  0  0  0  0
 17 10  1  0  0  0  0
M  RAD  4   2   2   3   3   4   2  11   2
M  END
