Coordinates from ORCA-job 4-MeOPhN2+_B3LYPG-6-31G_dp-d09-49-n800
 OpenBabel11261919463D

 17 16  0  0  0  0  0  0  0  0999 V2000
   -1.4244   -0.3210   -0.0545 C   0  0  0  0  0  0  0  0  0  0  0  0
   -2.7780   -0.3959    0.0439 N   0  0  0  0  0  0  0  0  0  0  0  0
   -3.8937   -0.4537    0.1252 N   0  0  0  0  0  0  0  0  0  0  0  0
   -0.7817    0.9234   -0.0165 C   0  0  0  0  0  0  0  0  0  0  0  0
    0.5593    1.0526   -0.1093 C   0  0  0  0  0  0  0  0  0  0  0  0
    1.3421   -0.1403   -0.2514 C   0  0  0  0  0  0  0  0  0  0  0  0
    2.6437    0.0463   -0.3357 O   0  0  0  0  0  0  0  0  0  0  0  0
    3.5538   -1.0675   -0.4801 C   0  0  0  0  0  0  0  0  0  0  0  0
    0.7057   -1.4141   -0.2924 C   0  0  0  0  0  0  0  0  0  0  0  0
   -0.6620   -1.5161   -0.1959 C   0  0  0  0  0  0  0  0  0  0  0  0
   -2.9137    5.0545    0.4251 H   0  0  0  0  0  0  0  0  0  0  0  0
    1.0829    2.0057   -0.0824 H   0  0  0  0  0  0  0  0  0  0  0  0
    4.5444   -0.6193   -0.5178 H   0  0  0  0  0  0  0  0  0  0  0  0
    3.3517   -1.6058   -1.4102 H   0  0  0  0  0  0  0  0  0  0  0  0
    3.4776   -1.7351    0.3826 H   0  0  0  0  0  0  0  0  0  0  0  0
    1.2953   -2.3156   -0.3999 H   0  0  0  0  0  0  0  0  0  0  0  0
   -1.1580   -2.4827   -0.2260 H   0  0  0  0  0  0  0  0  0  0  0  0
  1  4  1  0  0  0  0
  1  2  1  0  0  0  0
  2  3  1  0  0  0  0
  5 12  1  0  0  0  0
  5  4  2  0  0  0  0
  6  5  1  0  0  0  0
  7  6  1  0  0  0  0
  8  7  1  0  0  0  0
  8 15  1  0  0  0  0
  9  6  2  0  0  0  0
  9 10  1  0  0  0  0
 10  1  2  0  0  0  0
 13  8  1  0  0  0  0
 14  8  1  0  0  0  0
 16  9  1  0  0  0  0
 17 10  1  0  0  0  0
M  RAD  4   2   2   3   3   4   2  11   2
M  END
