Coordinates from ORCA-job 4-MeOPhN2+_B3LYPG-6-31G_dp-d09-49-n800
 OpenBabel11261919463D

 17 16  0  0  0  0  0  0  0  0999 V2000
   -1.4263   -0.3394   -0.0557 C   0  0  0  0  0  0  0  0  0  0  0  0
   -2.7797   -0.4205    0.0421 N   0  0  0  0  0  0  0  0  0  0  0  0
   -3.8952   -0.4832    0.1230 N   0  0  0  0  0  0  0  0  0  0  0  0
   -0.7898    0.9081   -0.0172 C   0  0  0  0  0  0  0  0  0  0  0  0
    0.5506    1.0438   -0.1095 C   0  0  0  0  0  0  0  0  0  0  0  0
    1.3392   -0.1453   -0.2516 C   0  0  0  0  0  0  0  0  0  0  0  0
    2.6400    0.0474   -0.3355 O   0  0  0  0  0  0  0  0  0  0  0  0
    3.5551   -1.0623   -0.4799 C   0  0  0  0  0  0  0  0  0  0  0  0
    0.7089   -1.4221   -0.2931 C   0  0  0  0  0  0  0  0  0  0  0  0
   -0.6583   -1.5309   -0.1971 C   0  0  0  0  0  0  0  0  0  0  0  0
   -2.9040    5.1824    0.4338 H   0  0  0  0  0  0  0  0  0  0  0  0
    1.0698    1.9994   -0.0822 H   0  0  0  0  0  0  0  0  0  0  0  0
    4.5437   -0.6096   -0.5171 H   0  0  0  0  0  0  0  0  0  0  0  0
    3.3558   -1.6013   -1.4101 H   0  0  0  0  0  0  0  0  0  0  0  0
    3.4818   -1.7304    0.3827 H   0  0  0  0  0  0  0  0  0  0  0  0
    1.3029   -2.3207   -0.4005 H   0  0  0  0  0  0  0  0  0  0  0  0
   -1.1495   -2.5000   -0.2276 H   0  0  0  0  0  0  0  0  0  0  0  0
  1  4  1  0  0  0  0
  1  2  1  0  0  0  0
  2  3  1  0  0  0  0
  5 12  1  0  0  0  0
  5  4  2  0  0  0  0
  6  5  1  0  0  0  0
  7  6  1  0  0  0  0
  8  7  1  0  0  0  0
  8 15  1  0  0  0  0
  9  6  2  0  0  0  0
  9 10  1  0  0  0  0
 10  1  2  0  0  0  0
 13  8  1  0  0  0  0
 14  8  1  0  0  0  0
 16  9  1  0  0  0  0
 17 10  1  0  0  0  0
M  RAD  4   2   2   3   3   4   2  11   2
M  END
