Coordinates from ORCA-job 4-MeOPhN2+_B3LYPG-6-31G_dp-d09-49-n800
 OpenBabel11261919463D

 17 16  0  0  0  0  0  0  0  0999 V2000
   -1.4452   -0.1578   -0.0425 C   0  0  0  0  0  0  0  0  0  0  0  0
   -2.7970   -0.1809    0.0594 N   0  0  0  0  0  0  0  0  0  0  0  0
   -3.9135   -0.1979    0.1438 N   0  0  0  0  0  0  0  0  0  0  0  0
   -0.7492    1.0582   -0.0116 C   0  0  0  0  0  0  0  0  0  0  0  0
    0.5923    1.1564   -0.1065 C   0  0  0  0  0  0  0  0  0  0  0  0
    1.3323   -0.0644   -0.2465 C   0  0  0  0  0  0  0  0  0  0  0  0
    2.6373    0.0802   -0.3338 O   0  0  0  0  0  0  0  0  0  0  0  0
    3.5130   -1.0625   -0.4759 C   0  0  0  0  0  0  0  0  0  0  0  0
    0.6531   -1.3157   -0.2818 C   0  0  0  0  0  0  0  0  0  0  0  0
   -0.7177   -1.3737   -0.1819 C   0  0  0  0  0  0  0  0  0  0  0  0
   -2.4921    3.5028    0.2916 H   0  0  0  0  0  0  0  0  0  0  0  0
    1.1373    2.0956   -0.0827 H   0  0  0  0  0  0  0  0  0  0  0  0
    4.5165   -0.6441   -0.5168 H   0  0  0  0  0  0  0  0  0  0  0  0
    3.2922   -1.5966   -1.4040 H   0  0  0  0  0  0  0  0  0  0  0  0
    3.4172   -1.7234    0.3898 H   0  0  0  0  0  0  0  0  0  0  0  0
    1.2118   -2.2368   -0.3881 H   0  0  0  0  0  0  0  0  0  0  0  0
   -1.2433   -2.3241   -0.2081 H   0  0  0  0  0  0  0  0  0  0  0  0
  1  4  1  0  0  0  0
  1  2  1  0  0  0  0
  2  3  1  0  0  0  0
  5 12  1  0  0  0  0
  5  4  2  0  0  0  0
  6  5  1  0  0  0  0
  7  6  1  0  0  0  0
  8  7  1  0  0  0  0
  8 15  1  0  0  0  0
  9  6  2  0  0  0  0
  9 10  1  0  0  0  0
 10  1  2  0  0  0  0
 13  8  1  0  0  0  0
 14  8  1  0  0  0  0
 16  9  1  0  0  0  0
 17 10  1  0  0  0  0
M  RAD  4   2   2   3   3   4   2  11   2
M  END
