Coordinates from ORCA-job 4-MeOPhN2+_B3LYPG-6-31G_dp-d09-49-n800
 OpenBabel11261919463D

 17 16  0  0  0  0  0  0  0  0999 V2000
   -1.4704   -0.1235   -0.0381 C   0  0  0  0  0  0  0  0  0  0  0  0
   -2.8208   -0.1462    0.0638 N   0  0  0  0  0  0  0  0  0  0  0  0
   -3.9374   -0.1622    0.1483 N   0  0  0  0  0  0  0  0  0  0  0  0
   -0.7801    1.1002   -0.0059 C   0  0  0  0  0  0  0  0  0  0  0  0
    0.5664    1.1891   -0.1021 C   0  0  0  0  0  0  0  0  0  0  0  0
    1.3029   -0.0299   -0.2419 C   0  0  0  0  0  0  0  0  0  0  0  0
    2.6088    0.1153   -0.3293 O   0  0  0  0  0  0  0  0  0  0  0  0
    3.4836   -1.0273   -0.4713 C   0  0  0  0  0  0  0  0  0  0  0  0
    0.6260   -1.2814   -0.2775 C   0  0  0  0  0  0  0  0  0  0  0  0
   -0.7454   -1.3382   -0.1774 C   0  0  0  0  0  0  0  0  0  0  0  0
   -2.0475    2.9416    0.2182 H   0  0  0  0  0  0  0  0  0  0  0  0
    1.1075    2.1284   -0.0776 H   0  0  0  0  0  0  0  0  0  0  0  0
    4.4873   -0.6096   -0.5123 H   0  0  0  0  0  0  0  0  0  0  0  0
    3.2630   -1.5619   -1.3993 H   0  0  0  0  0  0  0  0  0  0  0  0
    3.3880   -1.6885    0.3943 H   0  0  0  0  0  0  0  0  0  0  0  0
    1.1841   -2.2028   -0.3839 H   0  0  0  0  0  0  0  0  0  0  0  0
   -1.2709   -2.2878   -0.2036 H   0  0  0  0  0  0  0  0  0  0  0  0
  1  4  1  0  0  0  0
  1  2  1  0  0  0  0
  2  3  1  0  0  0  0
  5 12  1  0  0  0  0
  5  4  2  0  0  0  0
  6  5  1  0  0  0  0
  7  6  1  0  0  0  0
  8  7  1  0  0  0  0
  8 15  1  0  0  0  0
  9  6  2  0  0  0  0
  9 10  1  0  0  0  0
 10  1  2  0  0  0  0
 13  8  1  0  0  0  0
 14  8  1  0  0  0  0
 16  9  1  0  0  0  0
 17 10  1  0  0  0  0
M  RAD  4   2   2   3   3   4   2  11   2
M  END
