Coordinates from ORCA-job 4-MeOPhN2+_B3LYPG-6-31G_dp-d09-49-n800
 OpenBabel11261919463D

 17 16  0  0  0  0  0  0  0  0999 V2000
   -1.4208   -0.2535   -0.0503 C   0  0  0  0  0  0  0  0  0  0  0  0
   -2.7747   -0.3052    0.0500 N   0  0  0  0  0  0  0  0  0  0  0  0
   -3.8911   -0.3453    0.1327 N   0  0  0  0  0  0  0  0  0  0  0  0
   -0.7542    0.9782   -0.0151 C   0  0  0  0  0  0  0  0  0  0  0  0
    0.5876    1.0880   -0.1093 C   0  0  0  0  0  0  0  0  0  0  0  0
    1.3501   -0.1187   -0.2508 C   0  0  0  0  0  0  0  0  0  0  0  0
    2.6538    0.0464   -0.3366 O   0  0  0  0  0  0  0  0  0  0  0  0
    3.5461   -1.0823   -0.4803 C   0  0  0  0  0  0  0  0  0  0  0  0
    0.6919   -1.3814   -0.2893 C   0  0  0  0  0  0  0  0  0  0  0  0
   -0.6773   -1.4605   -0.1911 C   0  0  0  0  0  0  0  0  0  0  0  0
   -2.9063    4.5435    0.3902 H   0  0  0  0  0  0  0  0  0  0  0  0
    1.1255    2.0329   -0.0842 H   0  0  0  0  0  0  0  0  0  0  0  0
    4.5436   -0.6497   -0.5195 H   0  0  0  0  0  0  0  0  0  0  0  0
    3.3344   -1.6183   -1.4096 H   0  0  0  0  0  0  0  0  0  0  0  0
    3.4598   -1.7471    0.3836 H   0  0  0  0  0  0  0  0  0  0  0  0
    1.2660   -2.2929   -0.3965 H   0  0  0  0  0  0  0  0  0  0  0  0
   -1.1891   -2.4188   -0.2194 H   0  0  0  0  0  0  0  0  0  0  0  0
  1  4  1  0  0  0  0
  1  2  1  0  0  0  0
  2  3  1  0  0  0  0
  5 12  1  0  0  0  0
  5  4  2  0  0  0  0
  6  5  1  0  0  0  0
  7  6  1  0  0  0  0
  8  7  1  0  0  0  0
  8 15  1  0  0  0  0
  9  6  2  0  0  0  0
  9 10  1  0  0  0  0
 10  1  2  0  0  0  0
 13  8  1  0  0  0  0
 14  8  1  0  0  0  0
 16  9  1  0  0  0  0
 17 10  1  0  0  0  0
M  RAD  4   2   2   3   3   4   2  11   2
M  END
