Coordinates from ORCA-job 4-MeOPhN2+_B3LYPG-6-31G_dp-d09-49-n800
 OpenBabel11261919463D

 17 16  0  0  0  0  0  0  0  0999 V2000
   -1.4817   -0.0996   -0.0356 C   0  0  0  0  0  0  0  0  0  0  0  0
   -2.8323   -0.1296    0.0658 N   0  0  0  0  0  0  0  0  0  0  0  0
   -3.9492   -0.1511    0.1499 N   0  0  0  0  0  0  0  0  0  0  0  0
   -0.8054    1.1381   -0.0013 C   0  0  0  0  0  0  0  0  0  0  0  0
    0.5487    1.2058   -0.0993 C   0  0  0  0  0  0  0  0  0  0  0  0
    1.2844   -0.0095   -0.2388 C   0  0  0  0  0  0  0  0  0  0  0  0
    2.5913    0.1363   -0.3262 O   0  0  0  0  0  0  0  0  0  0  0  0
    3.4649   -1.0061   -0.4685 C   0  0  0  0  0  0  0  0  0  0  0  0
    0.6102   -1.2612   -0.2748 C   0  0  0  0  0  0  0  0  0  0  0  0
   -0.7615   -1.3147   -0.1745 C   0  0  0  0  0  0  0  0  0  0  0  0
   -1.7773    2.6082    0.1742 H   0  0  0  0  0  0  0  0  0  0  0  0
    1.0910    2.1436   -0.0751 H   0  0  0  0  0  0  0  0  0  0  0  0
    4.4691   -0.5895   -0.5096 H   0  0  0  0  0  0  0  0  0  0  0  0
    3.2444   -1.5408   -1.3965 H   0  0  0  0  0  0  0  0  0  0  0  0
    3.3696   -1.6680    0.3966 H   0  0  0  0  0  0  0  0  0  0  0  0
    1.1672   -2.1833   -0.3811 H   0  0  0  0  0  0  0  0  0  0  0  0
   -1.2884   -2.2631   -0.2005 H   0  0  0  0  0  0  0  0  0  0  0  0
  1  4  1  0  0  0  0
  1  2  1  0  0  0  0
  2  3  1  0  0  0  0
  5 12  1  0  0  0  0
  5  4  2  0  0  0  0
  6  5  1  0  0  0  0
  7  6  1  0  0  0  0
  8  7  1  0  0  0  0
  8 15  1  0  0  0  0
  9  6  2  0  0  0  0
  9 10  1  0  0  0  0
 10  1  2  0  0  0  0
 13  8  1  0  0  0  0
 14  8  1  0  0  0  0
 16  9  1  0  0  0  0
 17 10  1  0  0  0  0
M  RAD  4   2   2   3   3   4   2  11   2
M  END
