Coordinates from ORCA-job 4-MeOPhN2+_B3LYPG-6-31G_dp-d09-49-n800
 OpenBabel11261919463D

 17 16  0  0  0  0  0  0  0  0999 V2000
   -1.4702   -0.1237   -0.0381 C   0  0  0  0  0  0  0  0  0  0  0  0
   -2.8206   -0.1463    0.0638 N   0  0  0  0  0  0  0  0  0  0  0  0
   -3.9372   -0.1623    0.1482 N   0  0  0  0  0  0  0  0  0  0  0  0
   -0.7798    1.0998   -0.0060 C   0  0  0  0  0  0  0  0  0  0  0  0
    0.5666    1.1889   -0.1021 C   0  0  0  0  0  0  0  0  0  0  0  0
    1.3031   -0.0302   -0.2419 C   0  0  0  0  0  0  0  0  0  0  0  0
    2.6089    0.1150   -0.3294 O   0  0  0  0  0  0  0  0  0  0  0  0
    3.4838   -1.0275   -0.4713 C   0  0  0  0  0  0  0  0  0  0  0  0
    0.6262   -1.2817   -0.2776 C   0  0  0  0  0  0  0  0  0  0  0  0
   -0.7452   -1.3384   -0.1774 C   0  0  0  0  0  0  0  0  0  0  0  0
   -2.0504    2.9452    0.2187 H   0  0  0  0  0  0  0  0  0  0  0  0
    1.1077    2.1282   -0.0776 H   0  0  0  0  0  0  0  0  0  0  0  0
    4.4875   -0.6098   -0.5123 H   0  0  0  0  0  0  0  0  0  0  0  0
    3.2632   -1.5621   -1.3993 H   0  0  0  0  0  0  0  0  0  0  0  0
    3.3882   -1.6887    0.3943 H   0  0  0  0  0  0  0  0  0  0  0  0
    1.1843   -2.2030   -0.3839 H   0  0  0  0  0  0  0  0  0  0  0  0
   -1.2708   -2.2880   -0.2036 H   0  0  0  0  0  0  0  0  0  0  0  0
  1  4  1  0  0  0  0
  1  2  1  0  0  0  0
  2  3  1  0  0  0  0
  5 12  1  0  0  0  0
  5  4  2  0  0  0  0
  6  5  1  0  0  0  0
  7  6  1  0  0  0  0
  8  7  1  0  0  0  0
  8 15  1  0  0  0  0
  9  6  2  0  0  0  0
  9 10  1  0  0  0  0
 10  1  2  0  0  0  0
 13  8  1  0  0  0  0
 14  8  1  0  0  0  0
 16  9  1  0  0  0  0
 17 10  1  0  0  0  0
M  RAD  4   2   2   3   3   4   2  11   2
M  END
