Coordinates from ORCA-job 4-MeOPhN2+_B3LYPG-6-31G_dp-d09-49-n800
 OpenBabel11261919463D

 17 16  0  0  0  0  0  0  0  0999 V2000
   -1.4269   -0.3456   -0.0561 C   0  0  0  0  0  0  0  0  0  0  0  0
   -2.7802   -0.4293    0.0416 N   0  0  0  0  0  0  0  0  0  0  0  0
   -3.8955   -0.4939    0.1219 N   0  0  0  0  0  0  0  0  0  0  0  0
   -0.7931    0.9034   -0.0174 C   0  0  0  0  0  0  0  0  0  0  0  0
    0.5473    1.0405   -0.1096 C   0  0  0  0  0  0  0  0  0  0  0  0
    1.3380   -0.1472   -0.2517 C   0  0  0  0  0  0  0  0  0  0  0  0
    2.6385    0.0479   -0.3354 O   0  0  0  0  0  0  0  0  0  0  0  0
    3.5555   -1.0602   -0.4798 C   0  0  0  0  0  0  0  0  0  0  0  0
    0.7100   -1.4250   -0.2933 C   0  0  0  0  0  0  0  0  0  0  0  0
   -0.6571   -1.5359   -0.1974 C   0  0  0  0  0  0  0  0  0  0  0  0
   -2.8993    5.2261    0.4368 H   0  0  0  0  0  0  0  0  0  0  0  0
    1.0652    1.9968   -0.0822 H   0  0  0  0  0  0  0  0  0  0  0  0
    4.5434   -0.6058   -0.5169 H   0  0  0  0  0  0  0  0  0  0  0  0
    3.3573   -1.5996   -1.4100 H   0  0  0  0  0  0  0  0  0  0  0  0
    3.4832   -1.7285    0.3827 H   0  0  0  0  0  0  0  0  0  0  0  0
    1.3055   -2.3226   -0.4006 H   0  0  0  0  0  0  0  0  0  0  0  0
   -1.1468   -2.5057   -0.2280 H   0  0  0  0  0  0  0  0  0  0  0  0
  1  4  1  0  0  0  0
  1  2  1  0  0  0  0
  2  3  1  0  0  0  0
  5 12  1  0  0  0  0
  5  4  2  0  0  0  0
  6  5  1  0  0  0  0
  7  6  1  0  0  0  0
  8  7  1  0  0  0  0
  8 15  1  0  0  0  0
  9  6  2  0  0  0  0
  9 10  1  0  0  0  0
 10  1  2  0  0  0  0
 13  8  1  0  0  0  0
 14  8  1  0  0  0  0
 16  9  1  0  0  0  0
 17 10  1  0  0  0  0
M  RAD  4   2   2   3   3   4   2  11   2
M  END
