Coordinates from ORCA-job 4-MeOPhN2+_B3LYPG-6-31G_dp-d09-49-n800
 OpenBabel11261919463D

 17 16  0  0  0  0  0  0  0  0999 V2000
   -1.4846   -0.0910   -0.0348 C   0  0  0  0  0  0  0  0  0  0  0  0
   -2.8356   -0.1243    0.0663 N   0  0  0  0  0  0  0  0  0  0  0  0
   -3.9526   -0.1482    0.1501 N   0  0  0  0  0  0  0  0  0  0  0  0
   -0.8142    1.1526    0.0003 C   0  0  0  0  0  0  0  0  0  0  0  0
    0.5430    1.2106   -0.0984 C   0  0  0  0  0  0  0  0  0  0  0  0
    1.2787   -0.0032   -0.2377 C   0  0  0  0  0  0  0  0  0  0  0  0
    2.5859    0.1429   -0.3252 O   0  0  0  0  0  0  0  0  0  0  0  0
    3.4591   -0.9994   -0.4677 C   0  0  0  0  0  0  0  0  0  0  0  0
    0.6052   -1.2548   -0.2738 C   0  0  0  0  0  0  0  0  0  0  0  0
   -0.7666   -1.3065   -0.1735 C   0  0  0  0  0  0  0  0  0  0  0  0
   -1.6926    2.4995    0.1602 H   0  0  0  0  0  0  0  0  0  0  0  0
    1.0865    2.1477   -0.0745 H   0  0  0  0  0  0  0  0  0  0  0  0
    4.4635   -0.5832   -0.5090 H   0  0  0  0  0  0  0  0  0  0  0  0
    3.2385   -1.5342   -1.3957 H   0  0  0  0  0  0  0  0  0  0  0  0
    3.3639   -1.6616    0.3973 H   0  0  0  0  0  0  0  0  0  0  0  0
    1.1615   -2.1772   -0.3800 H   0  0  0  0  0  0  0  0  0  0  0  0
   -1.2944   -2.2542   -0.1994 H   0  0  0  0  0  0  0  0  0  0  0  0
  1  4  1  0  0  0  0
  1  2  1  0  0  0  0
  2  3  1  0  0  0  0
  5 12  1  0  0  0  0
  5  4  2  0  0  0  0
  6  5  1  0  0  0  0
  7  6  1  0  0  0  0
  8  7  1  0  0  0  0
  8 15  1  0  0  0  0
  9  6  2  0  0  0  0
  9 10  1  0  0  0  0
 10  1  2  0  0  0  0
 13  8  1  0  0  0  0
 14  8  1  0  0  0  0
 16  9  1  0  0  0  0
 17 10  1  0  0  0  0
M  RAD  4   2   2   3   3   4   2  11   2
M  END
