Coordinates from ORCA-job 4-MeOPhN2+_B3LYPG-6-31G_dp-d09-49-n800
 OpenBabel11261919463D

 17 17  0  0  0  0  0  0  0  0999 V2000
   -1.4926   -0.0631   -0.0321 C   0  0  0  0  0  0  0  0  0  0  0  0
   -2.8453   -0.1054    0.0679 N   0  0  0  0  0  0  0  0  0  0  0  0
   -3.9627   -0.1357    0.1508 N   0  0  0  0  0  0  0  0  0  0  0  0
   -0.8397    1.1980    0.0055 C   0  0  0  0  0  0  0  0  0  0  0  0
    0.5260    1.2248   -0.0958 C   0  0  0  0  0  0  0  0  0  0  0  0
    1.2629    0.0152   -0.2349 C   0  0  0  0  0  0  0  0  0  0  0  0
    2.5708    0.1622   -0.3225 O   0  0  0  0  0  0  0  0  0  0  0  0
    3.4430   -0.9800   -0.4655 C   0  0  0  0  0  0  0  0  0  0  0  0
    0.5903   -1.2351   -0.2709 C   0  0  0  0  0  0  0  0  0  0  0  0
   -0.7819   -1.2803   -0.1702 C   0  0  0  0  0  0  0  0  0  0  0  0
   -1.4479    2.1620    0.1183 H   0  0  0  0  0  0  0  0  0  0  0  0
    1.0738    2.1599   -0.0724 H   0  0  0  0  0  0  0  0  0  0  0  0
    4.4478   -0.5648   -0.5071 H   0  0  0  0  0  0  0  0  0  0  0  0
    3.2220   -1.5149   -1.3934 H   0  0  0  0  0  0  0  0  0  0  0  0
    3.3481   -1.6427    0.3993 H   0  0  0  0  0  0  0  0  0  0  0  0
    1.1438   -2.1594   -0.3770 H   0  0  0  0  0  0  0  0  0  0  0  0
   -1.3136   -2.2255   -0.1956 H   0  0  0  0  0  0  0  0  0  0  0  0
  1  4  1  0  0  0  0
  1  2  1  0  0  0  0
  2  3  1  0  0  0  0
  4 11  1  0  0  0  0
  5 12  1  0  0  0  0
  5  4  2  0  0  0  0
  6  5  1  0  0  0  0
  7  6  1  0  0  0  0
  8  7  1  0  0  0  0
  8 15  1  0  0  0  0
  9  6  2  0  0  0  0
  9 10  1  0  0  0  0
 10  1  2  0  0  0  0
 13  8  1  0  0  0  0
 14  8  1  0  0  0  0
 16  9  1  0  0  0  0
 17 10  1  0  0  0  0
M  RAD  2   2   2   3   3
M  END
