Coordinates from ORCA-job 4-MeOPhN2+_B3LYPG-6-31G_dp-d09-49-n800
 OpenBabel11261919463D

 17 16  0  0  0  0  0  0  0  0999 V2000
   -1.4211   -0.2390   -0.0494 C   0  0  0  0  0  0  0  0  0  0  0  0
   -2.7750   -0.2859    0.0512 N   0  0  0  0  0  0  0  0  0  0  0  0
   -3.8914   -0.3223    0.1344 N   0  0  0  0  0  0  0  0  0  0  0  0
   -0.7494    0.9901   -0.0149 C   0  0  0  0  0  0  0  0  0  0  0  0
    0.5924    1.0963   -0.1094 C   0  0  0  0  0  0  0  0  0  0  0  0
    1.3507   -0.1131   -0.2505 C   0  0  0  0  0  0  0  0  0  0  0  0
    2.6549    0.0477   -0.3367 O   0  0  0  0  0  0  0  0  0  0  0  0
    3.5436   -1.0840   -0.4801 C   0  0  0  0  0  0  0  0  0  0  0  0
    0.6882   -1.3736   -0.2885 C   0  0  0  0  0  0  0  0  0  0  0  0
   -0.6812   -1.4482   -0.1899 C   0  0  0  0  0  0  0  0  0  0  0  0
   -2.8904    4.4215    0.3811 H   0  0  0  0  0  0  0  0  0  0  0  0
    1.1328    2.0397   -0.0845 H   0  0  0  0  0  0  0  0  0  0  0  0
    4.5424   -0.6544   -0.5196 H   0  0  0  0  0  0  0  0  0  0  0  0
    3.3300   -1.6196   -1.4092 H   0  0  0  0  0  0  0  0  0  0  0  0
    3.4553   -1.7480    0.3841 H   0  0  0  0  0  0  0  0  0  0  0  0
    1.2593   -2.2871   -0.3956 H   0  0  0  0  0  0  0  0  0  0  0  0
   -1.1961   -2.4048   -0.2179 H   0  0  0  0  0  0  0  0  0  0  0  0
  1  4  1  0  0  0  0
  1  2  1  0  0  0  0
  2  3  1  0  0  0  0
  5 12  1  0  0  0  0
  5  4  2  0  0  0  0
  6  5  1  0  0  0  0
  7  6  1  0  0  0  0
  8  7  1  0  0  0  0
  8 15  1  0  0  0  0
  9  6  2  0  0  0  0
  9 10  1  0  0  0  0
 10  1  2  0  0  0  0
 13  8  1  0  0  0  0
 14  8  1  0  0  0  0
 16  9  1  0  0  0  0
 17 10  1  0  0  0  0
M  RAD  4   2   2   3   3   4   2  11   2
M  END
