Coordinates from ORCA-job 4-MeOPhN2+_B3LYPG-6-31G_dp-d09-49-n800
 OpenBabel11261919463D

 17 16  0  0  0  0  0  0  0  0999 V2000
   -1.4273   -0.3489   -0.0564 C   0  0  0  0  0  0  0  0  0  0  0  0
   -2.7805   -0.4337    0.0412 N   0  0  0  0  0  0  0  0  0  0  0  0
   -3.8959   -0.4993    0.1215 N   0  0  0  0  0  0  0  0  0  0  0  0
   -0.7947    0.9007   -0.0176 C   0  0  0  0  0  0  0  0  0  0  0  0
    0.5456    1.0389   -0.1096 C   0  0  0  0  0  0  0  0  0  0  0  0
    1.3374   -0.1480   -0.2517 C   0  0  0  0  0  0  0  0  0  0  0  0
    2.6378    0.0482   -0.3354 O   0  0  0  0  0  0  0  0  0  0  0  0
    3.5557   -1.0591   -0.4797 C   0  0  0  0  0  0  0  0  0  0  0  0
    0.7105   -1.4264   -0.2934 C   0  0  0  0  0  0  0  0  0  0  0  0
   -0.6565   -1.5385   -0.1976 C   0  0  0  0  0  0  0  0  0  0  0  0
   -2.8963    5.2478    0.4382 H   0  0  0  0  0  0  0  0  0  0  0  0
    1.0627    1.9957   -0.0821 H   0  0  0  0  0  0  0  0  0  0  0  0
    4.5432   -0.6039   -0.5168 H   0  0  0  0  0  0  0  0  0  0  0  0
    3.3579   -1.5986   -1.4100 H   0  0  0  0  0  0  0  0  0  0  0  0
    3.4840   -1.7275    0.3828 H   0  0  0  0  0  0  0  0  0  0  0  0
    1.3068   -2.3235   -0.4007 H   0  0  0  0  0  0  0  0  0  0  0  0
   -1.1454   -2.5087   -0.2282 H   0  0  0  0  0  0  0  0  0  0  0  0
  1  4  1  0  0  0  0
  1  2  1  0  0  0  0
  2  3  1  0  0  0  0
  5 12  1  0  0  0  0
  5  4  2  0  0  0  0
  6  5  1  0  0  0  0
  7  6  1  0  0  0  0
  8  7  1  0  0  0  0
  8 15  1  0  0  0  0
  9  6  2  0  0  0  0
  9 10  1  0  0  0  0
 10  1  2  0  0  0  0
 13  8  1  0  0  0  0
 14  8  1  0  0  0  0
 16  9  1  0  0  0  0
 17 10  1  0  0  0  0
M  RAD  4   2   2   3   3   4   2  11   2
M  END
