Coordinates from ORCA-job 4-MeOPhN2+_B3LYPG-6-31G_dp-d09-49-n800
 OpenBabel11261919463D

 17 16  0  0  0  0  0  0  0  0999 V2000
   -1.4284   -0.1913   -0.0457 C   0  0  0  0  0  0  0  0  0  0  0  0
   -2.7816   -0.2233    0.0558 N   0  0  0  0  0  0  0  0  0  0  0  0
   -3.8982   -0.2481    0.1396 N   0  0  0  0  0  0  0  0  0  0  0  0
   -0.7408    1.0289   -0.0132 C   0  0  0  0  0  0  0  0  0  0  0  0
    0.6007    1.1274   -0.1082 C   0  0  0  0  0  0  0  0  0  0  0  0
    1.3469   -0.0900   -0.2488 C   0  0  0  0  0  0  0  0  0  0  0  0
    2.6518    0.0590   -0.3358 O   0  0  0  0  0  0  0  0  0  0  0  0
    3.5310   -1.0806   -0.4789 C   0  0  0  0  0  0  0  0  0  0  0  0
    0.6722   -1.3439   -0.2852 C   0  0  0  0  0  0  0  0  0  0  0  0
   -0.6980   -1.4062   -0.1857 C   0  0  0  0  0  0  0  0  0  0  0  0
   -2.7530    3.9546    0.3397 H   0  0  0  0  0  0  0  0  0  0  0  0
    1.1467    2.0670   -0.0842 H   0  0  0  0  0  0  0  0  0  0  0  0
    4.5332   -0.6593   -0.5193 H   0  0  0  0  0  0  0  0  0  0  0  0
    3.3120   -1.6148   -1.4074 H   0  0  0  0  0  0  0  0  0  0  0  0
    3.4372   -1.7428    0.3861 H   0  0  0  0  0  0  0  0  0  0  0  0
    1.2344   -2.2629   -0.3919 H   0  0  0  0  0  0  0  0  0  0  0  0
   -1.2212   -2.3582   -0.2125 H   0  0  0  0  0  0  0  0  0  0  0  0
  1  4  1  0  0  0  0
  1  2  1  0  0  0  0
  2  3  1  0  0  0  0
  5 12  1  0  0  0  0
  5  4  2  0  0  0  0
  6  5  1  0  0  0  0
  7  6  1  0  0  0  0
  8  7  1  0  0  0  0
  8 15  1  0  0  0  0
  9  6  2  0  0  0  0
  9 10  1  0  0  0  0
 10  1  2  0  0  0  0
 13  8  1  0  0  0  0
 14  8  1  0  0  0  0
 16  9  1  0  0  0  0
 17 10  1  0  0  0  0
M  RAD  4   2   2   3   3   4   2  11   2
M  END
