Coordinates from ORCA-job 4-MeOPhN2+_B3LYPG-6-31G_dp-d09-49-n800
 OpenBabel11261919463D

 17 16  0  0  0  0  0  0  0  0999 V2000
   -1.4312   -0.1837   -0.0451 C   0  0  0  0  0  0  0  0  0  0  0  0
   -2.7841   -0.2132    0.0566 N   0  0  0  0  0  0  0  0  0  0  0  0
   -3.9006   -0.2361    0.1406 N   0  0  0  0  0  0  0  0  0  0  0  0
   -0.7410    1.0351   -0.0131 C   0  0  0  0  0  0  0  0  0  0  0  0
    0.6003    1.1334   -0.1080 C   0  0  0  0  0  0  0  0  0  0  0  0
    1.3448   -0.0851   -0.2484 C   0  0  0  0  0  0  0  0  0  0  0  0
    2.6497    0.0625   -0.3356 O   0  0  0  0  0  0  0  0  0  0  0  0
    3.5278   -1.0781   -0.4783 C   0  0  0  0  0  0  0  0  0  0  0  0
    0.6686   -1.3382   -0.2845 C   0  0  0  0  0  0  0  0  0  0  0  0
   -0.7017   -1.3991   -0.1849 C   0  0  0  0  0  0  0  0  0  0  0  0
   -2.7103    3.8631    0.3309 H   0  0  0  0  0  0  0  0  0  0  0  0
    1.1464    2.0727   -0.0841 H   0  0  0  0  0  0  0  0  0  0  0  0
    4.5305   -0.6577   -0.5189 H   0  0  0  0  0  0  0  0  0  0  0  0
    3.3083   -1.6122   -1.4067 H   0  0  0  0  0  0  0  0  0  0  0  0
    3.4334   -1.7399    0.3868 H   0  0  0  0  0  0  0  0  0  0  0  0
    1.2298   -2.2578   -0.3911 H   0  0  0  0  0  0  0  0  0  0  0  0
   -1.2258   -2.3505   -0.2115 H   0  0  0  0  0  0  0  0  0  0  0  0
  1  4  1  0  0  0  0
  1  2  1  0  0  0  0
  2  3  1  0  0  0  0
  5 12  1  0  0  0  0
  5  4  2  0  0  0  0
  6  5  1  0  0  0  0
  7  6  1  0  0  0  0
  8  7  1  0  0  0  0
  8 15  1  0  0  0  0
  9  6  2  0  0  0  0
  9 10  1  0  0  0  0
 10  1  2  0  0  0  0
 13  8  1  0  0  0  0
 14  8  1  0  0  0  0
 16  9  1  0  0  0  0
 17 10  1  0  0  0  0
M  RAD  4   2   2   3   3   4   2  11   2
M  END
