Coordinates from ORCA-job 4-MeOPhN2+_B3LYPG-6-31G_dp-d09-49-n800
 OpenBabel11261919463D

 17 16  0  0  0  0  0  0  0  0999 V2000
   -1.4835   -0.0944   -0.0351 C   0  0  0  0  0  0  0  0  0  0  0  0
   -2.8343   -0.1264    0.0661 N   0  0  0  0  0  0  0  0  0  0  0  0
   -3.9513   -0.1493    0.1500 N   0  0  0  0  0  0  0  0  0  0  0  0
   -0.8108    1.1469   -0.0003 C   0  0  0  0  0  0  0  0  0  0  0  0
    0.5452    1.2088   -0.0988 C   0  0  0  0  0  0  0  0  0  0  0  0
    1.2809   -0.0056   -0.2382 C   0  0  0  0  0  0  0  0  0  0  0  0
    2.5880    0.1404   -0.3256 O   0  0  0  0  0  0  0  0  0  0  0  0
    3.4613   -1.0020   -0.4680 C   0  0  0  0  0  0  0  0  0  0  0  0
    0.6071   -1.2573   -0.2742 C   0  0  0  0  0  0  0  0  0  0  0  0
   -0.7646   -1.3097   -0.1739 C   0  0  0  0  0  0  0  0  0  0  0  0
   -1.7252    2.5416    0.1657 H   0  0  0  0  0  0  0  0  0  0  0  0
    1.0882    2.1461   -0.0747 H   0  0  0  0  0  0  0  0  0  0  0  0
    4.4656   -0.5856   -0.5092 H   0  0  0  0  0  0  0  0  0  0  0  0
    3.2408   -1.5368   -1.3960 H   0  0  0  0  0  0  0  0  0  0  0  0
    3.3661   -1.6640    0.3971 H   0  0  0  0  0  0  0  0  0  0  0  0
    1.1637   -2.1795   -0.3805 H   0  0  0  0  0  0  0  0  0  0  0  0
   -1.2921   -2.2577   -0.1998 H   0  0  0  0  0  0  0  0  0  0  0  0
  1  4  1  0  0  0  0
  1  2  1  0  0  0  0
  2  3  1  0  0  0  0
  5 12  1  0  0  0  0
  5  4  2  0  0  0  0
  6  5  1  0  0  0  0
  7  6  1  0  0  0  0
  8  7  1  0  0  0  0
  8 15  1  0  0  0  0
  9  6  2  0  0  0  0
  9 10  1  0  0  0  0
 10  1  2  0  0  0  0
 13  8  1  0  0  0  0
 14  8  1  0  0  0  0
 16  9  1  0  0  0  0
 17 10  1  0  0  0  0
M  RAD  4   2   2   3   3   4   2  11   2
M  END
