Coordinates from ORCA-job 4-MeOPhN2+_B3LYPG-6-31G_dp-d09-49-n800
 OpenBabel11261919463D

 17 16  0  0  0  0  0  0  0  0999 V2000
   -1.4283   -0.1918   -0.0457 C   0  0  0  0  0  0  0  0  0  0  0  0
   -2.7815   -0.2239    0.0558 N   0  0  0  0  0  0  0  0  0  0  0  0
   -3.8981   -0.2488    0.1395 N   0  0  0  0  0  0  0  0  0  0  0  0
   -0.7408    1.0285   -0.0132 C   0  0  0  0  0  0  0  0  0  0  0  0
    0.6007    1.1271   -0.1082 C   0  0  0  0  0  0  0  0  0  0  0  0
    1.3470   -0.0902   -0.2488 C   0  0  0  0  0  0  0  0  0  0  0  0
    2.6518    0.0589   -0.3359 O   0  0  0  0  0  0  0  0  0  0  0  0
    3.5311   -1.0807   -0.4789 C   0  0  0  0  0  0  0  0  0  0  0  0
    0.6724   -1.3442   -0.2852 C   0  0  0  0  0  0  0  0  0  0  0  0
   -0.6978   -1.4066   -0.1857 C   0  0  0  0  0  0  0  0  0  0  0  0
   -2.7548    3.9591    0.3401 H   0  0  0  0  0  0  0  0  0  0  0  0
    1.1467    2.0667   -0.0842 H   0  0  0  0  0  0  0  0  0  0  0  0
    4.5333   -0.6593   -0.5193 H   0  0  0  0  0  0  0  0  0  0  0  0
    3.3122   -1.6149   -1.4074 H   0  0  0  0  0  0  0  0  0  0  0  0
    3.4374   -1.7429    0.3861 H   0  0  0  0  0  0  0  0  0  0  0  0
    1.2347   -2.2631   -0.3920 H   0  0  0  0  0  0  0  0  0  0  0  0
   -1.2210   -2.3586   -0.2125 H   0  0  0  0  0  0  0  0  0  0  0  0
  1  4  1  0  0  0  0
  1  2  1  0  0  0  0
  2  3  1  0  0  0  0
  5 12  1  0  0  0  0
  5  4  2  0  0  0  0
  6  5  1  0  0  0  0
  7  6  1  0  0  0  0
  8  7  1  0  0  0  0
  8 15  1  0  0  0  0
  9  6  2  0  0  0  0
  9 10  1  0  0  0  0
 10  1  2  0  0  0  0
 13  8  1  0  0  0  0
 14  8  1  0  0  0  0
 16  9  1  0  0  0  0
 17 10  1  0  0  0  0
M  RAD  4   2   2   3   3   4   2  11   2
M  END
