Coordinates from ORCA-job 4-MeOPhN2+_B3LYPG-6-31G_dp-d09-49-n800
 OpenBabel11261919463D

 17 16  0  0  0  0  0  0  0  0999 V2000
   -1.4487   -0.1512   -0.0418 C   0  0  0  0  0  0  0  0  0  0  0  0
   -2.8002   -0.1734    0.0603 N   0  0  0  0  0  0  0  0  0  0  0  0
   -3.9167   -0.1897    0.1448 N   0  0  0  0  0  0  0  0  0  0  0  0
   -0.7517    1.0644   -0.0109 C   0  0  0  0  0  0  0  0  0  0  0  0
    0.5900    1.1621   -0.1059 C   0  0  0  0  0  0  0  0  0  0  0  0
    1.3288   -0.0590   -0.2458 C   0  0  0  0  0  0  0  0  0  0  0  0
    2.6339    0.0850   -0.3332 O   0  0  0  0  0  0  0  0  0  0  0  0
    3.5090   -1.0582   -0.4753 C   0  0  0  0  0  0  0  0  0  0  0  0
    0.6491   -1.3100   -0.2811 C   0  0  0  0  0  0  0  0  0  0  0  0
   -0.7218   -1.3673   -0.1812 C   0  0  0  0  0  0  0  0  0  0  0  0
   -2.4338    3.4117    0.2806 H   0  0  0  0  0  0  0  0  0  0  0  0
    1.1344    2.1013   -0.0820 H   0  0  0  0  0  0  0  0  0  0  0  0
    4.5126   -0.6404   -0.5162 H   0  0  0  0  0  0  0  0  0  0  0  0
    3.2879   -1.5923   -1.4033 H   0  0  0  0  0  0  0  0  0  0  0  0
    3.4129   -1.7190    0.3904 H   0  0  0  0  0  0  0  0  0  0  0  0
    1.2072   -2.2314   -0.3874 H   0  0  0  0  0  0  0  0  0  0  0  0
   -1.2479   -2.3173   -0.2073 H   0  0  0  0  0  0  0  0  0  0  0  0
  1  4  1  0  0  0  0
  1  2  1  0  0  0  0
  2  3  1  0  0  0  0
  5 12  1  0  0  0  0
  5  4  2  0  0  0  0
  6  5  1  0  0  0  0
  7  6  1  0  0  0  0
  8  7  1  0  0  0  0
  8 15  1  0  0  0  0
  9  6  2  0  0  0  0
  9 10  1  0  0  0  0
 10  1  2  0  0  0  0
 13  8  1  0  0  0  0
 14  8  1  0  0  0  0
 16  9  1  0  0  0  0
 17 10  1  0  0  0  0
M  RAD  4   2   2   3   3   4   2  11   2
M  END
