Coordinates from ORCA-job 4-MeOPhN2+_B3LYPG-6-31G_dp-d09-49-n800
 OpenBabel11261919463D

 17 16  0  0  0  0  0  0  0  0999 V2000
   -1.4515   -0.1482   -0.0413 C   0  0  0  0  0  0  0  0  0  0  0  0
   -2.8029   -0.1696    0.0607 N   0  0  0  0  0  0  0  0  0  0  0  0
   -3.9193   -0.1848    0.1452 N   0  0  0  0  0  0  0  0  0  0  0  0
   -0.7548    1.0681   -0.0104 C   0  0  0  0  0  0  0  0  0  0  0  0
    0.5871    1.1656   -0.1054 C   0  0  0  0  0  0  0  0  0  0  0  0
    1.3257   -0.0555   -0.2453 C   0  0  0  0  0  0  0  0  0  0  0  0
    2.6308    0.0887   -0.3328 O   0  0  0  0  0  0  0  0  0  0  0  0
    3.5060   -1.0544   -0.4748 C   0  0  0  0  0  0  0  0  0  0  0  0
    0.6463   -1.3066   -0.2807 C   0  0  0  0  0  0  0  0  0  0  0  0
   -0.7247   -1.3640   -0.1807 C   0  0  0  0  0  0  0  0  0  0  0  0
   -2.3870    3.3532    0.2731 H   0  0  0  0  0  0  0  0  0  0  0  0
    1.1311    2.1048   -0.0815 H   0  0  0  0  0  0  0  0  0  0  0  0
    4.5096   -0.6364   -0.5158 H   0  0  0  0  0  0  0  0  0  0  0  0
    3.2849   -1.5885   -1.4029 H   0  0  0  0  0  0  0  0  0  0  0  0
    3.4099   -1.7152    0.3909 H   0  0  0  0  0  0  0  0  0  0  0  0
    1.2045   -2.2279   -0.3870 H   0  0  0  0  0  0  0  0  0  0  0  0
   -1.2506   -2.3140   -0.2069 H   0  0  0  0  0  0  0  0  0  0  0  0
  1  4  1  0  0  0  0
  1  2  1  0  0  0  0
  2  3  1  0  0  0  0
  5 12  1  0  0  0  0
  5  4  2  0  0  0  0
  6  5  1  0  0  0  0
  7  6  1  0  0  0  0
  8  7  1  0  0  0  0
  8 15  1  0  0  0  0
  9  6  2  0  0  0  0
  9 10  1  0  0  0  0
 10  1  2  0  0  0  0
 13  8  1  0  0  0  0
 14  8  1  0  0  0  0
 16  9  1  0  0  0  0
 17 10  1  0  0  0  0
M  RAD  4   2   2   3   3   4   2  11   2
M  END
