Coordinates from ORCA-job 4-MeOPhN2+_B3LYPG-6-31G_dp-d09-49-n800
 OpenBabel11261919463D

 17 16  0  0  0  0  0  0  0  0999 V2000
   -1.4862   -0.0858   -0.0343 C   0  0  0  0  0  0  0  0  0  0  0  0
   -2.8374   -0.1211    0.0665 N   0  0  0  0  0  0  0  0  0  0  0  0
   -3.9546   -0.1465    0.1501 N   0  0  0  0  0  0  0  0  0  0  0  0
   -0.8194    1.1614    0.0014 C   0  0  0  0  0  0  0  0  0  0  0  0
    0.5396    1.2133   -0.0979 C   0  0  0  0  0  0  0  0  0  0  0  0
    1.2755    0.0004   -0.2371 C   0  0  0  0  0  0  0  0  0  0  0  0
    2.5829    0.1467   -0.3245 O   0  0  0  0  0  0  0  0  0  0  0  0
    3.4558   -0.9956   -0.4673 C   0  0  0  0  0  0  0  0  0  0  0  0
    0.6023   -1.2511   -0.2732 C   0  0  0  0  0  0  0  0  0  0  0  0
   -0.7695   -1.3016   -0.1728 C   0  0  0  0  0  0  0  0  0  0  0  0
   -1.6443    2.4360    0.1521 H   0  0  0  0  0  0  0  0  0  0  0  0
    1.0840    2.1499   -0.0741 H   0  0  0  0  0  0  0  0  0  0  0  0
    4.4603   -0.5797   -0.5087 H   0  0  0  0  0  0  0  0  0  0  0  0
    3.2351   -1.5304   -1.3953 H   0  0  0  0  0  0  0  0  0  0  0  0
    3.3608   -1.6580    0.3976 H   0  0  0  0  0  0  0  0  0  0  0  0
    1.1582   -2.1738   -0.3794 H   0  0  0  0  0  0  0  0  0  0  0  0
   -1.2980   -2.2488   -0.1986 H   0  0  0  0  0  0  0  0  0  0  0  0
  1  4  1  0  0  0  0
  1  2  1  0  0  0  0
  2  3  1  0  0  0  0
  5 12  1  0  0  0  0
  5  4  2  0  0  0  0
  6  5  1  0  0  0  0
  7  6  1  0  0  0  0
  8  7  1  0  0  0  0
  8 15  1  0  0  0  0
  9  6  2  0  0  0  0
  9 10  1  0  0  0  0
 10  1  2  0  0  0  0
 13  8  1  0  0  0  0
 14  8  1  0  0  0  0
 16  9  1  0  0  0  0
 17 10  1  0  0  0  0
M  RAD  4   2   2   3   3   4   2  11   2
M  END
