Coordinates from ORCA-job 4-MeOPhN2+_B3LYPG-6-31G_dp-d09-49-n800
 OpenBabel11261919463D

 17 16  0  0  0  0  0  0  0  0999 V2000
   -1.4216   -0.2292   -0.0486 C   0  0  0  0  0  0  0  0  0  0  0  0
   -2.7754   -0.2729    0.0522 N   0  0  0  0  0  0  0  0  0  0  0  0
   -3.8919   -0.3069    0.1353 N   0  0  0  0  0  0  0  0  0  0  0  0
   -0.7465    0.9979   -0.0146 C   0  0  0  0  0  0  0  0  0  0  0  0
    0.5953    1.1021   -0.1092 C   0  0  0  0  0  0  0  0  0  0  0  0
    1.3509   -0.1092   -0.2503 C   0  0  0  0  0  0  0  0  0  0  0  0
    2.6552    0.0489   -0.3367 O   0  0  0  0  0  0  0  0  0  0  0  0
    3.5417   -1.0847   -0.4800 C   0  0  0  0  0  0  0  0  0  0  0  0
    0.6856   -1.3682   -0.2880 C   0  0  0  0  0  0  0  0  0  0  0  0
   -0.6840   -1.4399   -0.1891 C   0  0  0  0  0  0  0  0  0  0  0  0
   -2.8757    4.3365    0.3743 H   0  0  0  0  0  0  0  0  0  0  0  0
    1.1373    2.0445   -0.0846 H   0  0  0  0  0  0  0  0  0  0  0  0
    4.5414   -0.6570   -0.5198 H   0  0  0  0  0  0  0  0  0  0  0  0
    3.3269   -1.6199   -1.4089 H   0  0  0  0  0  0  0  0  0  0  0  0
    3.4522   -1.7483    0.3843 H   0  0  0  0  0  0  0  0  0  0  0  0
    1.2546   -2.2829   -0.3950 H   0  0  0  0  0  0  0  0  0  0  0  0
   -1.2009   -2.3954   -0.2168 H   0  0  0  0  0  0  0  0  0  0  0  0
  1  4  1  0  0  0  0
  1  2  1  0  0  0  0
  2  3  1  0  0  0  0
  5 12  1  0  0  0  0
  5  4  2  0  0  0  0
  6  5  1  0  0  0  0
  7  6  1  0  0  0  0
  8  7  1  0  0  0  0
  8 15  1  0  0  0  0
  9  6  2  0  0  0  0
  9 10  1  0  0  0  0
 10  1  2  0  0  0  0
 13  8  1  0  0  0  0
 14  8  1  0  0  0  0
 16  9  1  0  0  0  0
 17 10  1  0  0  0  0
M  RAD  4   2   2   3   3   4   2  11   2
M  END
