Coordinates from ORCA-job 4-MeOPhN2+_B3LYPG-6-31G_dp-d09-49-n800
 OpenBabel11261919463D

 17 16  0  0  0  0  0  0  0  0999 V2000
   -1.4571   -0.1413   -0.0403 C   0  0  0  0  0  0  0  0  0  0  0  0
   -2.8082   -0.1621    0.0618 N   0  0  0  0  0  0  0  0  0  0  0  0
   -3.9247   -0.1767    0.1456 N   0  0  0  0  0  0  0  0  0  0  0  0
   -0.7609    1.0757   -0.0092 C   0  0  0  0  0  0  0  0  0  0  0  0
    0.5817    1.1726   -0.1045 C   0  0  0  0  0  0  0  0  0  0  0  0
    1.3196   -0.0482   -0.2444 C   0  0  0  0  0  0  0  0  0  0  0  0
    2.6249    0.0961   -0.3319 O   0  0  0  0  0  0  0  0  0  0  0  0
    3.4999   -1.0470   -0.4739 C   0  0  0  0  0  0  0  0  0  0  0  0
    0.6406   -1.2993   -0.2798 C   0  0  0  0  0  0  0  0  0  0  0  0
   -0.7305   -1.3568   -0.1797 C   0  0  0  0  0  0  0  0  0  0  0  0
   -2.2936    3.2360    0.2580 H   0  0  0  0  0  0  0  0  0  0  0  0
    1.1246    2.1120   -0.0804 H   0  0  0  0  0  0  0  0  0  0  0  0
    4.5035   -0.6291   -0.5149 H   0  0  0  0  0  0  0  0  0  0  0  0
    3.2789   -1.5812   -1.4019 H   0  0  0  0  0  0  0  0  0  0  0  0
    3.4039   -1.7078    0.3919 H   0  0  0  0  0  0  0  0  0  0  0  0
    1.1988   -2.2207   -0.3861 H   0  0  0  0  0  0  0  0  0  0  0  0
   -1.2562   -2.3068   -0.2058 H   0  0  0  0  0  0  0  0  0  0  0  0
  1  4  1  0  0  0  0
  1  2  1  0  0  0  0
  2  3  1  0  0  0  0
  5 12  1  0  0  0  0
  5  4  2  0  0  0  0
  6  5  1  0  0  0  0
  7  6  1  0  0  0  0
  8  7  1  0  0  0  0
  8 15  1  0  0  0  0
  9  6  2  0  0  0  0
  9 10  1  0  0  0  0
 10  1  2  0  0  0  0
 13  8  1  0  0  0  0
 14  8  1  0  0  0  0
 16  9  1  0  0  0  0
 17 10  1  0  0  0  0
M  RAD  4   2   2   3   3   4   2  11   2
M  END
