Coordinates from ORCA-job 4-MeOPhN2+_B3LYPG-6-31G_dp-d09-49-n800
 OpenBabel11261919463D

 17 16  0  0  0  0  0  0  0  0999 V2000
   -1.4211   -0.2395   -0.0494 C   0  0  0  0  0  0  0  0  0  0  0  0
   -2.7750   -0.2865    0.0512 N   0  0  0  0  0  0  0  0  0  0  0  0
   -3.8914   -0.3231    0.1342 N   0  0  0  0  0  0  0  0  0  0  0  0
   -0.7495    0.9895   -0.0149 C   0  0  0  0  0  0  0  0  0  0  0  0
    0.5923    1.0961   -0.1094 C   0  0  0  0  0  0  0  0  0  0  0  0
    1.3508   -0.1133   -0.2506 C   0  0  0  0  0  0  0  0  0  0  0  0
    2.6549    0.0476   -0.3367 O   0  0  0  0  0  0  0  0  0  0  0  0
    3.5437   -1.0840   -0.4802 C   0  0  0  0  0  0  0  0  0  0  0  0
    0.6884   -1.3738   -0.2886 C   0  0  0  0  0  0  0  0  0  0  0  0
   -0.6810   -1.4487   -0.1900 C   0  0  0  0  0  0  0  0  0  0  0  0
   -2.8915    4.4262    0.3815 H   0  0  0  0  0  0  0  0  0  0  0  0
    1.1326    2.0396   -0.0845 H   0  0  0  0  0  0  0  0  0  0  0  0
    4.5425   -0.6544   -0.5197 H   0  0  0  0  0  0  0  0  0  0  0  0
    3.3302   -1.6196   -1.4092 H   0  0  0  0  0  0  0  0  0  0  0  0
    3.4555   -1.7481    0.3840 H   0  0  0  0  0  0  0  0  0  0  0  0
    1.2595   -2.2872   -0.3956 H   0  0  0  0  0  0  0  0  0  0  0  0
   -1.1958   -2.4054   -0.2179 H   0  0  0  0  0  0  0  0  0  0  0  0
  1  4  1  0  0  0  0
  1  2  1  0  0  0  0
  2  3  1  0  0  0  0
  5 12  1  0  0  0  0
  5  4  2  0  0  0  0
  6  5  1  0  0  0  0
  7  6  1  0  0  0  0
  8  7  1  0  0  0  0
  8 15  1  0  0  0  0
  9  6  2  0  0  0  0
  9 10  1  0  0  0  0
 10  1  2  0  0  0  0
 13  8  1  0  0  0  0
 14  8  1  0  0  0  0
 16  9  1  0  0  0  0
 17 10  1  0  0  0  0
M  RAD  4   2   2   3   3   4   2  11   2
M  END
