Coordinates from ORCA-job 4-MeOPhN2+_B3LYPG-6-31G_dp-d09-49-n800
 OpenBabel11261919463D

 17 16  0  0  0  0  0  0  0  0999 V2000
   -1.4778   -0.1094   -0.0365 C   0  0  0  0  0  0  0  0  0  0  0  0
   -2.8281   -0.1359    0.0651 N   0  0  0  0  0  0  0  0  0  0  0  0
   -3.9449   -0.1549    0.1494 N   0  0  0  0  0  0  0  0  0  0  0  0
   -0.7951    1.1220   -0.0032 C   0  0  0  0  0  0  0  0  0  0  0  0
    0.5557    1.1996   -0.1003 C   0  0  0  0  0  0  0  0  0  0  0  0
    1.2915   -0.0174   -0.2400 C   0  0  0  0  0  0  0  0  0  0  0  0
    2.5979    0.1283   -0.3274 O   0  0  0  0  0  0  0  0  0  0  0  0
    3.4721   -1.0142   -0.4696 C   0  0  0  0  0  0  0  0  0  0  0  0
    0.6162   -1.2691   -0.2759 C   0  0  0  0  0  0  0  0  0  0  0  0
   -0.7554   -1.3242   -0.1756 C   0  0  0  0  0  0  0  0  0  0  0  0
   -1.8809    2.7377    0.1909 H   0  0  0  0  0  0  0  0  0  0  0  0
    1.0970    2.1381   -0.0759 H   0  0  0  0  0  0  0  0  0  0  0  0
    4.4761   -0.5970   -0.5106 H   0  0  0  0  0  0  0  0  0  0  0  0
    3.2516   -1.5488   -1.3976 H   0  0  0  0  0  0  0  0  0  0  0  0
    3.3767   -1.6758    0.3957 H   0  0  0  0  0  0  0  0  0  0  0  0
    1.1738   -2.1907   -0.3822 H   0  0  0  0  0  0  0  0  0  0  0  0
   -1.2815   -2.2731   -0.2018 H   0  0  0  0  0  0  0  0  0  0  0  0
  1  4  1  0  0  0  0
  1  2  1  0  0  0  0
  2  3  1  0  0  0  0
  5 12  1  0  0  0  0
  5  4  2  0  0  0  0
  6  5  1  0  0  0  0
  7  6  1  0  0  0  0
  8  7  1  0  0  0  0
  8 15  1  0  0  0  0
  9  6  2  0  0  0  0
  9 10  1  0  0  0  0
 10  1  2  0  0  0  0
 13  8  1  0  0  0  0
 14  8  1  0  0  0  0
 16  9  1  0  0  0  0
 17 10  1  0  0  0  0
M  RAD  4   2   2   3   3   4   2  11   2
M  END
