Coordinates from ORCA-job 4-MeOPhN2+_B3LYPG-6-31G_dp-d09-49-n800
 OpenBabel11261919463D

 17 16  0  0  0  0  0  0  0  0999 V2000
   -1.4334   -0.1785   -0.0446 C   0  0  0  0  0  0  0  0  0  0  0  0
   -2.7861   -0.2066    0.0571 N   0  0  0  0  0  0  0  0  0  0  0  0
   -3.9027   -0.2281    0.1412 N   0  0  0  0  0  0  0  0  0  0  0  0
   -0.7415    1.0393   -0.0129 C   0  0  0  0  0  0  0  0  0  0  0  0
    0.5999    1.1378   -0.1078 C   0  0  0  0  0  0  0  0  0  0  0  0
    1.3433   -0.0814   -0.2481 C   0  0  0  0  0  0  0  0  0  0  0  0
    2.6482    0.0651   -0.3354 O   0  0  0  0  0  0  0  0  0  0  0  0
    3.5255   -1.0762   -0.4780 C   0  0  0  0  0  0  0  0  0  0  0  0
    0.6660   -1.3340   -0.2840 C   0  0  0  0  0  0  0  0  0  0  0  0
   -0.7044   -1.3942   -0.1843 C   0  0  0  0  0  0  0  0  0  0  0  0
   -2.6782    3.7987    0.3245 H   0  0  0  0  0  0  0  0  0  0  0  0
    1.1459    2.0771   -0.0840 H   0  0  0  0  0  0  0  0  0  0  0  0
    4.5284   -0.6564   -0.5187 H   0  0  0  0  0  0  0  0  0  0  0  0
    3.3055   -1.6102   -1.4063 H   0  0  0  0  0  0  0  0  0  0  0  0
    3.4307   -1.7377    0.3873 H   0  0  0  0  0  0  0  0  0  0  0  0
    1.2265   -2.2540   -0.3905 H   0  0  0  0  0  0  0  0  0  0  0  0
   -1.2288   -2.3454   -0.2109 H   0  0  0  0  0  0  0  0  0  0  0  0
  1  4  1  0  0  0  0
  1  2  1  0  0  0  0
  2  3  1  0  0  0  0
  5 12  1  0  0  0  0
  5  4  2  0  0  0  0
  6  5  1  0  0  0  0
  7  6  1  0  0  0  0
  8  7  1  0  0  0  0
  8 15  1  0  0  0  0
  9  6  2  0  0  0  0
  9 10  1  0  0  0  0
 10  1  2  0  0  0  0
 13  8  1  0  0  0  0
 14  8  1  0  0  0  0
 16  9  1  0  0  0  0
 17 10  1  0  0  0  0
M  RAD  4   2   2   3   3   4   2  11   2
M  END
