Coordinates from ORCA-job 4-MeOPhN2+_B3LYPG-6-31G_dp-d09-49-n800
 OpenBabel11261919463D

 17 16  0  0  0  0  0  0  0  0999 V2000
   -1.4860   -0.0864   -0.0344 C   0  0  0  0  0  0  0  0  0  0  0  0
   -2.8372   -0.1215    0.0665 N   0  0  0  0  0  0  0  0  0  0  0  0
   -3.9543   -0.1467    0.1501 N   0  0  0  0  0  0  0  0  0  0  0  0
   -0.8188    1.1604    0.0012 C   0  0  0  0  0  0  0  0  0  0  0  0
    0.5400    1.2130   -0.0980 C   0  0  0  0  0  0  0  0  0  0  0  0
    1.2758   -0.0000   -0.2372 C   0  0  0  0  0  0  0  0  0  0  0  0
    2.5832    0.1463   -0.3246 O   0  0  0  0  0  0  0  0  0  0  0  0
    3.4562   -0.9961   -0.4674 C   0  0  0  0  0  0  0  0  0  0  0  0
    0.6026   -1.2515   -0.2732 C   0  0  0  0  0  0  0  0  0  0  0  0
   -0.7692   -1.3022   -0.1729 C   0  0  0  0  0  0  0  0  0  0  0  0
   -1.6497    2.4431    0.1530 H   0  0  0  0  0  0  0  0  0  0  0  0
    1.0842    2.1497   -0.0741 H   0  0  0  0  0  0  0  0  0  0  0  0
    4.4606   -0.5801   -0.5087 H   0  0  0  0  0  0  0  0  0  0  0  0
    3.2355   -1.5308   -1.3953 H   0  0  0  0  0  0  0  0  0  0  0  0
    3.3611   -1.6584    0.3976 H   0  0  0  0  0  0  0  0  0  0  0  0
    1.1586   -2.1742   -0.3794 H   0  0  0  0  0  0  0  0  0  0  0  0
   -1.2976   -2.2494   -0.1987 H   0  0  0  0  0  0  0  0  0  0  0  0
  1  4  1  0  0  0  0
  1  2  1  0  0  0  0
  2  3  1  0  0  0  0
  5 12  1  0  0  0  0
  5  4  2  0  0  0  0
  6  5  1  0  0  0  0
  7  6  1  0  0  0  0
  8  7  1  0  0  0  0
  8 15  1  0  0  0  0
  9  6  2  0  0  0  0
  9 10  1  0  0  0  0
 10  1  2  0  0  0  0
 13  8  1  0  0  0  0
 14  8  1  0  0  0  0
 16  9  1  0  0  0  0
 17 10  1  0  0  0  0
M  RAD  4   2   2   3   3   4   2  11   2
M  END
