Coordinates from ORCA-job 4-MeOPhN2+_B3LYPG-6-31G_dp-d09-49-n800
 OpenBabel11261919463D

 17 16  0  0  0  0  0  0  0  0999 V2000
   -1.4417   -0.1629   -0.0431 C   0  0  0  0  0  0  0  0  0  0  0  0
   -2.7938   -0.1869    0.0588 N   0  0  0  0  0  0  0  0  0  0  0  0
   -3.9103   -0.2048    0.1432 N   0  0  0  0  0  0  0  0  0  0  0  0
   -0.7465    1.0535   -0.0120 C   0  0  0  0  0  0  0  0  0  0  0  0
    0.5948    1.1515   -0.1069 C   0  0  0  0  0  0  0  0  0  0  0  0
    1.3355   -0.0691   -0.2469 C   0  0  0  0  0  0  0  0  0  0  0  0
    2.6405    0.0759   -0.3343 O   0  0  0  0  0  0  0  0  0  0  0  0
    3.5166   -1.0665   -0.4765 C   0  0  0  0  0  0  0  0  0  0  0  0
    0.6566   -1.3206   -0.2824 C   0  0  0  0  0  0  0  0  0  0  0  0
   -0.7141   -1.3788   -0.1825 C   0  0  0  0  0  0  0  0  0  0  0  0
   -2.5458    3.5805    0.3006 H   0  0  0  0  0  0  0  0  0  0  0  0
    1.1404    2.0905   -0.0831 H   0  0  0  0  0  0  0  0  0  0  0  0
    4.5199   -0.6479   -0.5174 H   0  0  0  0  0  0  0  0  0  0  0  0
    3.2959   -1.6006   -1.4047 H   0  0  0  0  0  0  0  0  0  0  0  0
    3.4209   -1.7276    0.3891 H   0  0  0  0  0  0  0  0  0  0  0  0
    1.2157   -2.2415   -0.3887 H   0  0  0  0  0  0  0  0  0  0  0  0
   -1.2396   -2.3293   -0.2087 H   0  0  0  0  0  0  0  0  0  0  0  0
  1  4  1  0  0  0  0
  1  2  1  0  0  0  0
  2  3  1  0  0  0  0
  5 12  1  0  0  0  0
  5  4  2  0  0  0  0
  6  5  1  0  0  0  0
  7  6  1  0  0  0  0
  8  7  1  0  0  0  0
  8 15  1  0  0  0  0
  9  6  2  0  0  0  0
  9 10  1  0  0  0  0
 10  1  2  0  0  0  0
 13  8  1  0  0  0  0
 14  8  1  0  0  0  0
 16  9  1  0  0  0  0
 17 10  1  0  0  0  0
M  RAD  4   2   2   3   3   4   2  11   2
M  END
