Coordinates from ORCA-job 4-MeOPhN2+_B3LYPG-6-31G_dp-d09-49-n800
 OpenBabel11261919463D

 17 16  0  0  0  0  0  0  0  0999 V2000
   -1.4664   -0.1296   -0.0388 C   0  0  0  0  0  0  0  0  0  0  0  0
   -2.8170   -0.1513    0.0632 N   0  0  0  0  0  0  0  0  0  0  0  0
   -3.9335   -0.1665    0.1476 N   0  0  0  0  0  0  0  0  0  0  0  0
   -0.7736    1.0914   -0.0071 C   0  0  0  0  0  0  0  0  0  0  0  0
    0.5713    1.1838   -0.1028 C   0  0  0  0  0  0  0  0  0  0  0  0
    1.3083   -0.0359   -0.2427 C   0  0  0  0  0  0  0  0  0  0  0  0
    2.6139    0.1091   -0.3302 O   0  0  0  0  0  0  0  0  0  0  0  0
    3.4889   -1.0336   -0.4721 C   0  0  0  0  0  0  0  0  0  0  0  0
    0.6307   -1.2873   -0.2783 C   0  0  0  0  0  0  0  0  0  0  0  0
   -0.7406   -1.3444   -0.1782 C   0  0  0  0  0  0  0  0  0  0  0  0
   -2.1264    3.0373    0.2310 H   0  0  0  0  0  0  0  0  0  0  0  0
    1.1127    2.1233   -0.0784 H   0  0  0  0  0  0  0  0  0  0  0  0
    4.4925   -0.6157   -0.5131 H   0  0  0  0  0  0  0  0  0  0  0  0
    3.2683   -1.5680   -1.4001 H   0  0  0  0  0  0  0  0  0  0  0  0
    3.3932   -1.6946    0.3935 H   0  0  0  0  0  0  0  0  0  0  0  0
    1.1889   -2.2086   -0.3847 H   0  0  0  0  0  0  0  0  0  0  0  0
   -1.2661   -2.2942   -0.2044 H   0  0  0  0  0  0  0  0  0  0  0  0
  1  4  1  0  0  0  0
  1  2  1  0  0  0  0
  2  3  1  0  0  0  0
  5 12  1  0  0  0  0
  5  4  2  0  0  0  0
  6  5  1  0  0  0  0
  7  6  1  0  0  0  0
  8  7  1  0  0  0  0
  8 15  1  0  0  0  0
  9  6  2  0  0  0  0
  9 10  1  0  0  0  0
 10  1  2  0  0  0  0
 13  8  1  0  0  0  0
 14  8  1  0  0  0  0
 16  9  1  0  0  0  0
 17 10  1  0  0  0  0
M  RAD  4   2   2   3   3   4   2  11   2
M  END
