Coordinates from ORCA-job 4-MeOPhN2+_B3LYPG-6-31G_dp-d09-49-n800
 OpenBabel11261919463D

 17 16  0  0  0  0  0  0  0  0999 V2000
   -1.4215   -0.2787   -0.0518 C   0  0  0  0  0  0  0  0  0  0  0  0
   -2.7754   -0.3390    0.0479 N   0  0  0  0  0  0  0  0  0  0  0  0
   -3.8915   -0.3856    0.1302 N   0  0  0  0  0  0  0  0  0  0  0  0
   -0.7638    0.9578   -0.0154 C   0  0  0  0  0  0  0  0  0  0  0  0
    0.5778    1.0744   -0.1091 C   0  0  0  0  0  0  0  0  0  0  0  0
    1.3477   -0.1273   -0.2510 C   0  0  0  0  0  0  0  0  0  0  0  0
    2.6508    0.0456   -0.3362 O   0  0  0  0  0  0  0  0  0  0  0  0
    3.5495   -1.0778   -0.4804 C   0  0  0  0  0  0  0  0  0  0  0  0
    0.6974   -1.3941   -0.2907 C   0  0  0  0  0  0  0  0  0  0  0  0
   -0.6712   -1.4815   -0.1930 C   0  0  0  0  0  0  0  0  0  0  0  0
   -2.9179    4.7419    0.4036 H   0  0  0  0  0  0  0  0  0  0  0  0
    1.1107    2.0222   -0.0832 H   0  0  0  0  0  0  0  0  0  0  0  0
    4.5445   -0.6395   -0.5189 H   0  0  0  0  0  0  0  0  0  0  0  0
    3.3413   -1.6144   -1.4101 H   0  0  0  0  0  0  0  0  0  0  0  0
    3.4668   -1.7438    0.3829 H   0  0  0  0  0  0  0  0  0  0  0  0
    1.2772   -2.3020   -0.3981 H   0  0  0  0  0  0  0  0  0  0  0  0
   -1.1774   -2.4428   -0.2222 H   0  0  0  0  0  0  0  0  0  0  0  0
  1  4  1  0  0  0  0
  1  2  1  0  0  0  0
  2  3  1  0  0  0  0
  5 12  1  0  0  0  0
  5  4  2  0  0  0  0
  6  5  1  0  0  0  0
  7  6  1  0  0  0  0
  8  7  1  0  0  0  0
  8 15  1  0  0  0  0
  9  6  2  0  0  0  0
  9 10  1  0  0  0  0
 10  1  2  0  0  0  0
 13  8  1  0  0  0  0
 14  8  1  0  0  0  0
 16  9  1  0  0  0  0
 17 10  1  0  0  0  0
M  RAD  4   2   2   3   3   4   2  11   2
M  END
