Coordinates from ORCA-job 4-MeOPhN2+_B3LYPG-6-31G_dp-d09-49-n800
 OpenBabel11261919463D

 17 17  0  0  0  0  0  0  0  0999 V2000
   -1.4907   -0.0697   -0.0327 C   0  0  0  0  0  0  0  0  0  0  0  0
   -2.8430   -0.1104    0.0673 N   0  0  0  0  0  0  0  0  0  0  0  0
   -3.9603   -0.1397    0.1503 N   0  0  0  0  0  0  0  0  0  0  0  0
   -0.8342    1.1878    0.0044 C   0  0  0  0  0  0  0  0  0  0  0  0
    0.5299    1.2214   -0.0963 C   0  0  0  0  0  0  0  0  0  0  0  0
    1.2664    0.0109   -0.2353 C   0  0  0  0  0  0  0  0  0  0  0  0
    2.5742    0.1577   -0.3228 O   0  0  0  0  0  0  0  0  0  0  0  0
    3.4466   -0.9845   -0.4661 C   0  0  0  0  0  0  0  0  0  0  0  0
    0.5938   -1.2398   -0.2713 C   0  0  0  0  0  0  0  0  0  0  0  0
   -0.7783   -1.2865   -0.1708 C   0  0  0  0  0  0  0  0  0  0  0  0
   -1.5036    2.2427    0.1278 H   0  0  0  0  0  0  0  0  0  0  0  0
    1.0768    2.1567   -0.0728 H   0  0  0  0  0  0  0  0  0  0  0  0
    4.4513   -0.5690   -0.5078 H   0  0  0  0  0  0  0  0  0  0  0  0
    3.2255   -1.5192   -1.3941 H   0  0  0  0  0  0  0  0  0  0  0  0
    3.3518   -1.6472    0.3986 H   0  0  0  0  0  0  0  0  0  0  0  0
    1.1480   -2.1636   -0.3774 H   0  0  0  0  0  0  0  0  0  0  0  0
   -1.3091   -2.2322   -0.1964 H   0  0  0  0  0  0  0  0  0  0  0  0
  1  4  1  0  0  0  0
  1  2  1  0  0  0  0
  2  3  1  0  0  0  0
  4 11  1  0  0  0  0
  5 12  1  0  0  0  0
  5  4  2  0  0  0  0
  6  5  1  0  0  0  0
  7  6  1  0  0  0  0
  8  7  1  0  0  0  0
  8 15  1  0  0  0  0
  9  6  2  0  0  0  0
  9 10  1  0  0  0  0
 10  1  2  0  0  0  0
 13  8  1  0  0  0  0
 14  8  1  0  0  0  0
 16  9  1  0  0  0  0
 17 10  1  0  0  0  0
M  RAD  2   2   2   3   3
M  END
