Coordinates from ORCA-job 4-MeOPhN2+_B3LYPG-6-31G_dp-d09-49-n800
 OpenBabel11261919463D

 17 16  0  0  0  0  0  0  0  0999 V2000
   -1.4238   -0.2109   -0.0472 C   0  0  0  0  0  0  0  0  0  0  0  0
   -2.7774   -0.2489    0.0540 N   0  0  0  0  0  0  0  0  0  0  0  0
   -3.8939   -0.2786    0.1375 N   0  0  0  0  0  0  0  0  0  0  0  0
   -0.7425    1.0128   -0.0139 C   0  0  0  0  0  0  0  0  0  0  0  0
    0.5992    1.1136   -0.1087 C   0  0  0  0  0  0  0  0  0  0  0  0
    1.3500   -0.1007   -0.2496 C   0  0  0  0  0  0  0  0  0  0  0  0
    2.6547    0.0526   -0.3364 O   0  0  0  0  0  0  0  0  0  0  0  0
    3.5373   -1.0842   -0.4797 C   0  0  0  0  0  0  0  0  0  0  0  0
    0.6798   -1.3571   -0.2868 C   0  0  0  0  0  0  0  0  0  0  0  0
   -0.6900   -1.4239   -0.1876 C   0  0  0  0  0  0  0  0  0  0  0  0
   -2.8312    4.1637    0.3590 H   0  0  0  0  0  0  0  0  0  0  0  0
    1.1436    2.0545   -0.0844 H   0  0  0  0  0  0  0  0  0  0  0  0
    4.5383   -0.6599   -0.5197 H   0  0  0  0  0  0  0  0  0  0  0  0
    3.3203   -1.6188   -1.4084 H   0  0  0  0  0  0  0  0  0  0  0  0
    3.4456   -1.7471    0.3850 H   0  0  0  0  0  0  0  0  0  0  0  0
    1.2453   -2.2741   -0.3937 H   0  0  0  0  0  0  0  0  0  0  0  0
   -1.2103   -2.3775   -0.2149 H   0  0  0  0  0  0  0  0  0  0  0  0
  1  4  1  0  0  0  0
  1  2  1  0  0  0  0
  2  3  1  0  0  0  0
  5 12  1  0  0  0  0
  5  4  2  0  0  0  0
  6  5  1  0  0  0  0
  7  6  1  0  0  0  0
  8  7  1  0  0  0  0
  8 15  1  0  0  0  0
  9  6  2  0  0  0  0
  9 10  1  0  0  0  0
 10  1  2  0  0  0  0
 13  8  1  0  0  0  0
 14  8  1  0  0  0  0
 16  9  1  0  0  0  0
 17 10  1  0  0  0  0
M  RAD  4   2   2   3   3   4   2  11   2
M  END
