Coordinates from ORCA-job 4-MeOPhN2+_B3LYPG-6-31G_dp-d09-49-n800
 OpenBabel11261919463D

 17 16  0  0  0  0  0  0  0  0999 V2000
   -1.4565   -0.1423   -0.0405 C   0  0  0  0  0  0  0  0  0  0  0  0
   -2.8075   -0.1632    0.0615 N   0  0  0  0  0  0  0  0  0  0  0  0
   -3.9240   -0.1775    0.1460 N   0  0  0  0  0  0  0  0  0  0  0  0
   -0.7603    1.0748   -0.0094 C   0  0  0  0  0  0  0  0  0  0  0  0
    0.5823    1.1717   -0.1046 C   0  0  0  0  0  0  0  0  0  0  0  0
    1.3203   -0.0492   -0.2445 C   0  0  0  0  0  0  0  0  0  0  0  0
    2.6255    0.0952   -0.3320 O   0  0  0  0  0  0  0  0  0  0  0  0
    3.5006   -1.0479   -0.4740 C   0  0  0  0  0  0  0  0  0  0  0  0
    0.6413   -1.3003   -0.2799 C   0  0  0  0  0  0  0  0  0  0  0  0
   -0.7298   -1.3578   -0.1799 C   0  0  0  0  0  0  0  0  0  0  0  0
   -2.3050    3.2509    0.2598 H   0  0  0  0  0  0  0  0  0  0  0  0
    1.1253    2.1110   -0.0806 H   0  0  0  0  0  0  0  0  0  0  0  0
    4.5043   -0.6299   -0.5149 H   0  0  0  0  0  0  0  0  0  0  0  0
    3.2797   -1.5821   -1.4020 H   0  0  0  0  0  0  0  0  0  0  0  0
    3.4047   -1.7087    0.3918 H   0  0  0  0  0  0  0  0  0  0  0  0
    1.1995   -2.2216   -0.3862 H   0  0  0  0  0  0  0  0  0  0  0  0
   -1.2555   -2.3078   -0.2061 H   0  0  0  0  0  0  0  0  0  0  0  0
  1  4  1  0  0  0  0
  1  2  1  0  0  0  0
  2  3  1  0  0  0  0
  5 12  1  0  0  0  0
  5  4  2  0  0  0  0
  6  5  1  0  0  0  0
  7  6  1  0  0  0  0
  8  7  1  0  0  0  0
  8 15  1  0  0  0  0
  9  6  2  0  0  0  0
  9 10  1  0  0  0  0
 10  1  2  0  0  0  0
 13  8  1  0  0  0  0
 14  8  1  0  0  0  0
 16  9  1  0  0  0  0
 17 10  1  0  0  0  0
M  RAD  4   2   2   3   3   4   2  11   2
M  END
