Coordinates from ORCA-job 4-MeOPhN2+_B3LYPG-6-31G_dp-d09-49-n800
 OpenBabel11261919463D

 17 16  0  0  0  0  0  0  0  0999 V2000
   -1.4233   -0.3066   -0.0535 C   0  0  0  0  0  0  0  0  0  0  0  0
   -2.7770   -0.3764    0.0453 N   0  0  0  0  0  0  0  0  0  0  0  0
   -3.8929   -0.4305    0.1270 N   0  0  0  0  0  0  0  0  0  0  0  0
   -0.7755    0.9352   -0.0161 C   0  0  0  0  0  0  0  0  0  0  0  0
    0.5657    1.0600   -0.1091 C   0  0  0  0  0  0  0  0  0  0  0  0
    1.3441   -0.1360   -0.2513 C   0  0  0  0  0  0  0  0  0  0  0  0
    2.6462    0.0459   -0.3359 O   0  0  0  0  0  0  0  0  0  0  0  0
    3.5524   -1.0712   -0.4803 C   0  0  0  0  0  0  0  0  0  0  0  0
    0.7029   -1.4073   -0.2919 C   0  0  0  0  0  0  0  0  0  0  0  0
   -0.6651   -1.5043   -0.1950 C   0  0  0  0  0  0  0  0  0  0  0  0
   -2.9164    4.9489    0.4178 H   0  0  0  0  0  0  0  0  0  0  0  0
    1.0926    2.0112   -0.0825 H   0  0  0  0  0  0  0  0  0  0  0  0
    4.5445   -0.6263   -0.5182 H   0  0  0  0  0  0  0  0  0  0  0  0
    3.3483   -1.6089   -1.4102 H   0  0  0  0  0  0  0  0  0  0  0  0
    3.4740   -1.7382    0.3826 H   0  0  0  0  0  0  0  0  0  0  0  0
    1.2891   -2.3110   -0.3994 H   0  0  0  0  0  0  0  0  0  0  0  0
   -1.1646   -2.4691   -0.2248 H   0  0  0  0  0  0  0  0  0  0  0  0
  1  4  1  0  0  0  0
  1  2  1  0  0  0  0
  2  3  1  0  0  0  0
  5 12  1  0  0  0  0
  5  4  2  0  0  0  0
  6  5  1  0  0  0  0
  7  6  1  0  0  0  0
  8  7  1  0  0  0  0
  8 15  1  0  0  0  0
  9  6  2  0  0  0  0
  9 10  1  0  0  0  0
 10  1  2  0  0  0  0
 13  8  1  0  0  0  0
 14  8  1  0  0  0  0
 16  9  1  0  0  0  0
 17 10  1  0  0  0  0
M  RAD  4   2   2   3   3   4   2  11   2
M  END
