Coordinates from ORCA-job 4-MeOPhN2+_B3LYPG-6-31G_dp-d09-49-n800
 OpenBabel11261919463D

 17 17  0  0  0  0  0  0  0  0999 V2000
   -1.4956   -0.0533   -0.0312 C   0  0  0  0  0  0  0  0  0  0  0  0
   -2.8490   -0.0967    0.0691 N   0  0  0  0  0  0  0  0  0  0  0  0
   -3.9664   -0.1276    0.1521 N   0  0  0  0  0  0  0  0  0  0  0  0
   -0.8470    1.2117    0.0071 C   0  0  0  0  0  0  0  0  0  0  0  0
    0.5203    1.2303   -0.0955 C   0  0  0  0  0  0  0  0  0  0  0  0
    1.2579    0.0218   -0.2347 C   0  0  0  0  0  0  0  0  0  0  0  0
    2.5658    0.1690   -0.3222 O   0  0  0  0  0  0  0  0  0  0  0  0
    3.4379   -0.9733   -0.4643 C   0  0  0  0  0  0  0  0  0  0  0  0
    0.5851   -1.2278   -0.2705 C   0  0  0  0  0  0  0  0  0  0  0  0
   -0.7874   -1.2711   -0.1694 C   0  0  0  0  0  0  0  0  0  0  0  0
   -1.3652    2.0379    0.1043 H   0  0  0  0  0  0  0  0  0  0  0  0
    1.0687    2.1654   -0.0719 H   0  0  0  0  0  0  0  0  0  0  0  0
    4.4428   -0.5584   -0.5059 H   0  0  0  0  0  0  0  0  0  0  0  0
    3.2171   -1.5088   -1.3920 H   0  0  0  0  0  0  0  0  0  0  0  0
    3.3426   -1.6355    0.4008 H   0  0  0  0  0  0  0  0  0  0  0  0
    1.1375   -2.1527   -0.3767 H   0  0  0  0  0  0  0  0  0  0  0  0
   -1.3203   -2.2155   -0.1947 H   0  0  0  0  0  0  0  0  0  0  0  0
  1  4  1  0  0  0  0
  1  2  1  0  0  0  0
  2  3  1  0  0  0  0
  4 11  1  0  0  0  0
  5 12  1  0  0  0  0
  5  4  2  0  0  0  0
  6  5  1  0  0  0  0
  7  6  1  0  0  0  0
  8  7  1  0  0  0  0
  8 15  1  0  0  0  0
  9  6  2  0  0  0  0
  9 10  1  0  0  0  0
 10  1  2  0  0  0  0
 13  8  1  0  0  0  0
 14  8  1  0  0  0  0
 16  9  1  0  0  0  0
 17 10  1  0  0  0  0
M  RAD  2   2   2   3   3
M  END
