Coordinates from ORCA-job 4-MeOPhN2+_B3LYPG-6-31G_dp-d09-49-n800
 OpenBabel11261919463D

 17 16  0  0  0  0  0  0  0  0999 V2000
   -1.4730   -0.1190   -0.0375 C   0  0  0  0  0  0  0  0  0  0  0  0
   -2.8233   -0.1427    0.0643 N   0  0  0  0  0  0  0  0  0  0  0  0
   -3.9399   -0.1595    0.1486 N   0  0  0  0  0  0  0  0  0  0  0  0
   -0.7848    1.1069   -0.0050 C   0  0  0  0  0  0  0  0  0  0  0  0
    0.5629    1.1926   -0.1014 C   0  0  0  0  0  0  0  0  0  0  0  0
    1.2992   -0.0258   -0.2412 C   0  0  0  0  0  0  0  0  0  0  0  0
    2.6052    0.1196   -0.3287 O   0  0  0  0  0  0  0  0  0  0  0  0
    3.4798   -1.0230   -0.4707 C   0  0  0  0  0  0  0  0  0  0  0  0
    0.6228   -1.2774   -0.2770 C   0  0  0  0  0  0  0  0  0  0  0  0
   -0.7487   -1.3337   -0.1768 C   0  0  0  0  0  0  0  0  0  0  0  0
   -1.9925    2.8746    0.2091 H   0  0  0  0  0  0  0  0  0  0  0  0
    1.1039    2.1317   -0.0770 H   0  0  0  0  0  0  0  0  0  0  0  0
    4.4836   -0.6054   -0.5117 H   0  0  0  0  0  0  0  0  0  0  0  0
    3.2593   -1.5575   -1.3988 H   0  0  0  0  0  0  0  0  0  0  0  0
    3.3843   -1.6843    0.3948 H   0  0  0  0  0  0  0  0  0  0  0  0
    1.1807   -2.1988   -0.3834 H   0  0  0  0  0  0  0  0  0  0  0  0
   -1.2744   -2.2831   -0.2030 H   0  0  0  0  0  0  0  0  0  0  0  0
  1  4  1  0  0  0  0
  1  2  1  0  0  0  0
  2  3  1  0  0  0  0
  5 12  1  0  0  0  0
  5  4  2  0  0  0  0
  6  5  1  0  0  0  0
  7  6  1  0  0  0  0
  8  7  1  0  0  0  0
  8 15  1  0  0  0  0
  9  6  2  0  0  0  0
  9 10  1  0  0  0  0
 10  1  2  0  0  0  0
 13  8  1  0  0  0  0
 14  8  1  0  0  0  0
 16  9  1  0  0  0  0
 17 10  1  0  0  0  0
M  RAD  4   2   2   3   3   4   2  11   2
M  END
