Coordinates from ORCA-job 4-MeOPhN2+_B3LYPG-6-31G_dp-d09-49-n800
 OpenBabel11261919463D

 17 16  0  0  0  0  0  0  0  0999 V2000
   -1.4698   -0.1244   -0.0382 C   0  0  0  0  0  0  0  0  0  0  0  0
   -2.8202   -0.1469    0.0637 N   0  0  0  0  0  0  0  0  0  0  0  0
   -3.9368   -0.1628    0.1482 N   0  0  0  0  0  0  0  0  0  0  0  0
   -0.7791    1.0988   -0.0061 C   0  0  0  0  0  0  0  0  0  0  0  0
    0.5671    1.1883   -0.1022 C   0  0  0  0  0  0  0  0  0  0  0  0
    1.3037   -0.0308   -0.2420 C   0  0  0  0  0  0  0  0  0  0  0  0
    2.6095    0.1144   -0.3295 O   0  0  0  0  0  0  0  0  0  0  0  0
    3.4844   -1.0282   -0.4714 C   0  0  0  0  0  0  0  0  0  0  0  0
    0.6267   -1.2823   -0.2777 C   0  0  0  0  0  0  0  0  0  0  0  0
   -0.7447   -1.3391   -0.1775 C   0  0  0  0  0  0  0  0  0  0  0  0
   -2.0592    2.9558    0.2201 H   0  0  0  0  0  0  0  0  0  0  0  0
    1.1082    2.1276   -0.0777 H   0  0  0  0  0  0  0  0  0  0  0  0
    4.4881   -0.6105   -0.5124 H   0  0  0  0  0  0  0  0  0  0  0  0
    3.2638   -1.5628   -1.3994 H   0  0  0  0  0  0  0  0  0  0  0  0
    3.3888   -1.6894    0.3942 H   0  0  0  0  0  0  0  0  0  0  0  0
    1.1848   -2.2037   -0.3840 H   0  0  0  0  0  0  0  0  0  0  0  0
   -1.2702   -2.2888   -0.2037 H   0  0  0  0  0  0  0  0  0  0  0  0
  1  4  1  0  0  0  0
  1  2  1  0  0  0  0
  2  3  1  0  0  0  0
  5 12  1  0  0  0  0
  5  4  2  0  0  0  0
  6  5  1  0  0  0  0
  7  6  1  0  0  0  0
  8  7  1  0  0  0  0
  8 15  1  0  0  0  0
  9  6  2  0  0  0  0
  9 10  1  0  0  0  0
 10  1  2  0  0  0  0
 13  8  1  0  0  0  0
 14  8  1  0  0  0  0
 16  9  1  0  0  0  0
 17 10  1  0  0  0  0
M  RAD  4   2   2   3   3   4   2  11   2
M  END
