Coordinates from ORCA-job 4-MeOPhN2+_B3LYPG-6-31G_dp-d09-49-n800
 OpenBabel11261919463D

 17 16  0  0  0  0  0  0  0  0999 V2000
   -1.4485   -0.1519   -0.0418 C   0  0  0  0  0  0  0  0  0  0  0  0
   -2.8000   -0.1738    0.0602 N   0  0  0  0  0  0  0  0  0  0  0  0
   -3.9165   -0.1895    0.1445 N   0  0  0  0  0  0  0  0  0  0  0  0
   -0.7518    1.0642   -0.0109 C   0  0  0  0  0  0  0  0  0  0  0  0
    0.5898    1.1618   -0.1059 C   0  0  0  0  0  0  0  0  0  0  0  0
    1.3288   -0.0594   -0.2458 C   0  0  0  0  0  0  0  0  0  0  0  0
    2.6339    0.0848   -0.3333 O   0  0  0  0  0  0  0  0  0  0  0  0
    3.5091   -1.0582   -0.4753 C   0  0  0  0  0  0  0  0  0  0  0  0
    0.6493   -1.3104   -0.2811 C   0  0  0  0  0  0  0  0  0  0  0  0
   -0.7216   -1.3679   -0.1812 C   0  0  0  0  0  0  0  0  0  0  0  0
   -2.4358    3.4163    0.2813 H   0  0  0  0  0  0  0  0  0  0  0  0
    1.1344    2.1009   -0.0821 H   0  0  0  0  0  0  0  0  0  0  0  0
    4.5127   -0.6402   -0.5163 H   0  0  0  0  0  0  0  0  0  0  0  0
    3.2881   -1.5923   -1.4034 H   0  0  0  0  0  0  0  0  0  0  0  0
    3.4131   -1.7191    0.3904 H   0  0  0  0  0  0  0  0  0  0  0  0
    1.2076   -2.2317   -0.3874 H   0  0  0  0  0  0  0  0  0  0  0  0
   -1.2476   -2.3180   -0.2073 H   0  0  0  0  0  0  0  0  0  0  0  0
  1  4  1  0  0  0  0
  1  2  1  0  0  0  0
  2  3  1  0  0  0  0
  5 12  1  0  0  0  0
  5  4  2  0  0  0  0
  6  5  1  0  0  0  0
  7  6  1  0  0  0  0
  8  7  1  0  0  0  0
  8 15  1  0  0  0  0
  9  6  2  0  0  0  0
  9 10  1  0  0  0  0
 10  1  2  0  0  0  0
 13  8  1  0  0  0  0
 14  8  1  0  0  0  0
 16  9  1  0  0  0  0
 17 10  1  0  0  0  0
M  RAD  4   2   2   3   3   4   2  11   2
M  END
