Coordinates from ORCA-job 4-MeOPhN2+_B3LYPG-6-31G_dp-d09-49-n800
 OpenBabel11261919463D

 17 16  0  0  0  0  0  0  0  0999 V2000
   -1.4741   -0.1168   -0.0373 C   0  0  0  0  0  0  0  0  0  0  0  0
   -2.8245   -0.1411    0.0645 N   0  0  0  0  0  0  0  0  0  0  0  0
   -3.9411   -0.1584    0.1488 N   0  0  0  0  0  0  0  0  0  0  0  0
   -0.7871    1.1102   -0.0046 C   0  0  0  0  0  0  0  0  0  0  0  0
    0.5612    1.1943   -0.1011 C   0  0  0  0  0  0  0  0  0  0  0  0
    1.2974   -0.0238   -0.2409 C   0  0  0  0  0  0  0  0  0  0  0  0
    2.6035    0.1216   -0.3284 O   0  0  0  0  0  0  0  0  0  0  0  0
    3.4780   -1.0209   -0.4705 C   0  0  0  0  0  0  0  0  0  0  0  0
    0.6213   -1.2754   -0.2767 C   0  0  0  0  0  0  0  0  0  0  0  0
   -0.7503   -1.3315   -0.1765 C   0  0  0  0  0  0  0  0  0  0  0  0
   -1.9665    2.8430    0.2048 H   0  0  0  0  0  0  0  0  0  0  0  0
    1.1023    2.1333   -0.0767 H   0  0  0  0  0  0  0  0  0  0  0  0
    4.4818   -0.6034   -0.5115 H   0  0  0  0  0  0  0  0  0  0  0  0
    3.2575   -1.5554   -1.3985 H   0  0  0  0  0  0  0  0  0  0  0  0
    3.3826   -1.6823    0.3950 H   0  0  0  0  0  0  0  0  0  0  0  0
    1.1791   -2.1969   -0.3831 H   0  0  0  0  0  0  0  0  0  0  0  0
   -1.2760   -2.2809   -0.2027 H   0  0  0  0  0  0  0  0  0  0  0  0
  1  4  1  0  0  0  0
  1  2  1  0  0  0  0
  2  3  1  0  0  0  0
  5 12  1  0  0  0  0
  5  4  2  0  0  0  0
  6  5  1  0  0  0  0
  7  6  1  0  0  0  0
  8  7  1  0  0  0  0
  8 15  1  0  0  0  0
  9  6  2  0  0  0  0
  9 10  1  0  0  0  0
 10  1  2  0  0  0  0
 13  8  1  0  0  0  0
 14  8  1  0  0  0  0
 16  9  1  0  0  0  0
 17 10  1  0  0  0  0
M  RAD  4   2   2   3   3   4   2  11   2
M  END
