Coordinates from ORCA-job 4-MeOPhN2+_B3LYPG-6-31G_dp-d09-49-n800
 OpenBabel11261919463D

 17 16  0  0  0  0  0  0  0  0999 V2000
   -1.4374   -0.1699   -0.0438 C   0  0  0  0  0  0  0  0  0  0  0  0
   -2.7898   -0.1957    0.0580 N   0  0  0  0  0  0  0  0  0  0  0  0
   -3.9063   -0.2151    0.1424 N   0  0  0  0  0  0  0  0  0  0  0  0
   -0.7437    1.0471   -0.0124 C   0  0  0  0  0  0  0  0  0  0  0  0
    0.5976    1.1449   -0.1074 C   0  0  0  0  0  0  0  0  0  0  0  0
    1.3395   -0.0751   -0.2475 C   0  0  0  0  0  0  0  0  0  0  0  0
    2.6444    0.0705   -0.3348 O   0  0  0  0  0  0  0  0  0  0  0  0
    3.5210   -1.0714   -0.4772 C   0  0  0  0  0  0  0  0  0  0  0  0
    0.6612   -1.3270   -0.2832 C   0  0  0  0  0  0  0  0  0  0  0  0
   -0.7094   -1.3859   -0.1834 C   0  0  0  0  0  0  0  0  0  0  0  0
   -2.6123    3.6838    0.3122 H   0  0  0  0  0  0  0  0  0  0  0  0
    1.1437    2.0839   -0.0836 H   0  0  0  0  0  0  0  0  0  0  0  0
    4.5242   -0.6523   -0.5180 H   0  0  0  0  0  0  0  0  0  0  0  0
    3.3006   -1.6055   -1.4055 H   0  0  0  0  0  0  0  0  0  0  0  0
    3.4257   -1.7327    0.3882 H   0  0  0  0  0  0  0  0  0  0  0  0
    1.2208   -2.2476   -0.3896 H   0  0  0  0  0  0  0  0  0  0  0  0
   -1.2347   -2.3366   -0.2098 H   0  0  0  0  0  0  0  0  0  0  0  0
  1  4  1  0  0  0  0
  1  2  1  0  0  0  0
  2  3  1  0  0  0  0
  5 12  1  0  0  0  0
  5  4  2  0  0  0  0
  6  5  1  0  0  0  0
  7  6  1  0  0  0  0
  8  7  1  0  0  0  0
  8 15  1  0  0  0  0
  9  6  2  0  0  0  0
  9 10  1  0  0  0  0
 10  1  2  0  0  0  0
 13  8  1  0  0  0  0
 14  8  1  0  0  0  0
 16  9  1  0  0  0  0
 17 10  1  0  0  0  0
M  RAD  4   2   2   3   3   4   2  11   2
M  END
