Coordinates from ORCA-job 4-MeOPhN2+_B3LYPG-6-31G_dp-d09-49-n800
 OpenBabel11261919463D

 17 16  0  0  0  0  0  0  0  0999 V2000
   -1.4854   -0.0884   -0.0345 C   0  0  0  0  0  0  0  0  0  0  0  0
   -2.8365   -0.1227    0.0664 N   0  0  0  0  0  0  0  0  0  0  0  0
   -3.9536   -0.1474    0.1501 N   0  0  0  0  0  0  0  0  0  0  0  0
   -0.8168    1.1570    0.0008 C   0  0  0  0  0  0  0  0  0  0  0  0
    0.5413    1.2120   -0.0982 C   0  0  0  0  0  0  0  0  0  0  0  0
    1.2771   -0.0014   -0.2374 C   0  0  0  0  0  0  0  0  0  0  0  0
    2.5844    0.1448   -0.3249 O   0  0  0  0  0  0  0  0  0  0  0  0
    3.4574   -0.9975   -0.4675 C   0  0  0  0  0  0  0  0  0  0  0  0
    0.6037   -1.2529   -0.2735 C   0  0  0  0  0  0  0  0  0  0  0  0
   -0.7681   -1.3041   -0.1731 C   0  0  0  0  0  0  0  0  0  0  0  0
   -1.6684    2.4678    0.1562 H   0  0  0  0  0  0  0  0  0  0  0  0
    1.0852    2.1488   -0.0743 H   0  0  0  0  0  0  0  0  0  0  0  0
    4.4619   -0.5814   -0.5088 H   0  0  0  0  0  0  0  0  0  0  0  0
    3.2368   -1.5323   -1.3955 H   0  0  0  0  0  0  0  0  0  0  0  0
    3.3624   -1.6598    0.3975 H   0  0  0  0  0  0  0  0  0  0  0  0
    1.1599   -2.1755   -0.3797 H   0  0  0  0  0  0  0  0  0  0  0  0
   -1.2962   -2.2515   -0.1990 H   0  0  0  0  0  0  0  0  0  0  0  0
  1  4  1  0  0  0  0
  1  2  1  0  0  0  0
  2  3  1  0  0  0  0
  5 12  1  0  0  0  0
  5  4  2  0  0  0  0
  6  5  1  0  0  0  0
  7  6  1  0  0  0  0
  8  7  1  0  0  0  0
  8 15  1  0  0  0  0
  9  6  2  0  0  0  0
  9 10  1  0  0  0  0
 10  1  2  0  0  0  0
 13  8  1  0  0  0  0
 14  8  1  0  0  0  0
 16  9  1  0  0  0  0
 17 10  1  0  0  0  0
M  RAD  4   2   2   3   3   4   2  11   2
M  END
