Coordinates from ORCA-job 4-MeOPhN2+_B3LYPG-6-31G_dp-d09-49-n800
 OpenBabel11261919463D

 17 16  0  0  0  0  0  0  0  0999 V2000
   -1.4855   -0.0881   -0.0345 C   0  0  0  0  0  0  0  0  0  0  0  0
   -2.8366   -0.1225    0.0664 N   0  0  0  0  0  0  0  0  0  0  0  0
   -3.9537   -0.1473    0.1501 N   0  0  0  0  0  0  0  0  0  0  0  0
   -0.8171    1.1575    0.0009 C   0  0  0  0  0  0  0  0  0  0  0  0
    0.5411    1.2121   -0.0981 C   0  0  0  0  0  0  0  0  0  0  0  0
    1.2769   -0.0012   -0.2374 C   0  0  0  0  0  0  0  0  0  0  0  0
    2.5842    0.1450   -0.3248 O   0  0  0  0  0  0  0  0  0  0  0  0
    3.4573   -0.9973   -0.4675 C   0  0  0  0  0  0  0  0  0  0  0  0
    0.6036   -1.2527   -0.2735 C   0  0  0  0  0  0  0  0  0  0  0  0
   -0.7682   -1.3038   -0.1731 C   0  0  0  0  0  0  0  0  0  0  0  0
   -1.6657    2.4643    0.1557 H   0  0  0  0  0  0  0  0  0  0  0  0
    1.0851    2.1489   -0.0743 H   0  0  0  0  0  0  0  0  0  0  0  0
    4.4617   -0.5813   -0.5088 H   0  0  0  0  0  0  0  0  0  0  0  0
    3.2366   -1.5321   -1.3955 H   0  0  0  0  0  0  0  0  0  0  0  0
    3.3622   -1.6596    0.3975 H   0  0  0  0  0  0  0  0  0  0  0  0
    1.1597   -2.1753   -0.3797 H   0  0  0  0  0  0  0  0  0  0  0  0
   -1.2964   -2.2512   -0.1990 H   0  0  0  0  0  0  0  0  0  0  0  0
  1  4  1  0  0  0  0
  1  2  1  0  0  0  0
  2  3  1  0  0  0  0
  5 12  1  0  0  0  0
  5  4  2  0  0  0  0
  6  5  1  0  0  0  0
  7  6  1  0  0  0  0
  8  7  1  0  0  0  0
  8 15  1  0  0  0  0
  9  6  2  0  0  0  0
  9 10  1  0  0  0  0
 10  1  2  0  0  0  0
 13  8  1  0  0  0  0
 14  8  1  0  0  0  0
 16  9  1  0  0  0  0
 17 10  1  0  0  0  0
M  RAD  4   2   2   3   3   4   2  11   2
M  END
