Coordinates from ORCA-job 4-MeOPhN2+_B3LYPG-6-31G_dp-d09-49-n800
 OpenBabel11261919463D

 17 16  0  0  0  0  0  0  0  0999 V2000
   -1.4275   -0.3513   -0.0566 C   0  0  0  0  0  0  0  0  0  0  0  0
   -2.7808   -0.4370    0.0409 N   0  0  0  0  0  0  0  0  0  0  0  0
   -3.8960   -0.5033    0.1214 N   0  0  0  0  0  0  0  0  0  0  0  0
   -0.7958    0.8988   -0.0177 C   0  0  0  0  0  0  0  0  0  0  0  0
    0.5444    1.0378   -0.1096 C   0  0  0  0  0  0  0  0  0  0  0  0
    1.3369   -0.1486   -0.2518 C   0  0  0  0  0  0  0  0  0  0  0  0
    2.6372    0.0484   -0.3353 O   0  0  0  0  0  0  0  0  0  0  0  0
    3.5558   -1.0583   -0.4796 C   0  0  0  0  0  0  0  0  0  0  0  0
    0.7109   -1.4274   -0.2935 C   0  0  0  0  0  0  0  0  0  0  0  0
   -0.6560   -1.5404   -0.1978 C   0  0  0  0  0  0  0  0  0  0  0  0
   -2.8943    5.2640    0.4393 H   0  0  0  0  0  0  0  0  0  0  0  0
    1.0609    1.9948   -0.0821 H   0  0  0  0  0  0  0  0  0  0  0  0
    4.5430   -0.6025   -0.5167 H   0  0  0  0  0  0  0  0  0  0  0  0
    3.3585   -1.5979   -1.4099 H   0  0  0  0  0  0  0  0  0  0  0  0
    3.4845   -1.7268    0.3828 H   0  0  0  0  0  0  0  0  0  0  0  0
    1.3078   -2.3241   -0.4008 H   0  0  0  0  0  0  0  0  0  0  0  0
   -1.1443   -2.5109   -0.2285 H   0  0  0  0  0  0  0  0  0  0  0  0
  1  4  1  0  0  0  0
  1  2  1  0  0  0  0
  2  3  1  0  0  0  0
  5 12  1  0  0  0  0
  5  4  2  0  0  0  0
  6  5  1  0  0  0  0
  7  6  1  0  0  0  0
  8  7  1  0  0  0  0
  8 15  1  0  0  0  0
  9  6  2  0  0  0  0
  9 10  1  0  0  0  0
 10  1  2  0  0  0  0
 13  8  1  0  0  0  0
 14  8  1  0  0  0  0
 16  9  1  0  0  0  0
 17 10  1  0  0  0  0
M  RAD  4   2   2   3   3   4   2  11   2
M  END
