Coordinates from ORCA-job 4-MeOPhN2+_B3LYPG-6-31G_dp-d09-49-n800
 OpenBabel11261919463D

 17 16  0  0  0  0  0  0  0  0999 V2000
   -1.4277   -0.1943   -0.0463 C   0  0  0  0  0  0  0  0  0  0  0  0
   -2.7809   -0.2270    0.0548 N   0  0  0  0  0  0  0  0  0  0  0  0
   -3.8972   -0.2527    0.1415 N   0  0  0  0  0  0  0  0  0  0  0  0
   -0.7405    1.0262   -0.0136 C   0  0  0  0  0  0  0  0  0  0  0  0
    0.6011    1.1255   -0.1083 C   0  0  0  0  0  0  0  0  0  0  0  0
    1.3478   -0.0916   -0.2490 C   0  0  0  0  0  0  0  0  0  0  0  0
    2.6527    0.0576   -0.3358 O   0  0  0  0  0  0  0  0  0  0  0  0
    3.5322   -1.0818   -0.4788 C   0  0  0  0  0  0  0  0  0  0  0  0
    0.6735   -1.3458   -0.2857 C   0  0  0  0  0  0  0  0  0  0  0  0
   -0.6966   -1.4089   -0.1864 C   0  0  0  0  0  0  0  0  0  0  0  0
   -2.7694    3.9888    0.3427 H   0  0  0  0  0  0  0  0  0  0  0  0
    1.1468    2.0653   -0.0841 H   0  0  0  0  0  0  0  0  0  0  0  0
    4.5343   -0.6603   -0.5191 H   0  0  0  0  0  0  0  0  0  0  0  0
    3.3134   -1.6159   -1.4074 H   0  0  0  0  0  0  0  0  0  0  0  0
    3.4384   -1.7441    0.3861 H   0  0  0  0  0  0  0  0  0  0  0  0
    1.2362   -2.2645   -0.3924 H   0  0  0  0  0  0  0  0  0  0  0  0
   -1.2192   -2.3612   -0.2135 H   0  0  0  0  0  0  0  0  0  0  0  0
  1  4  1  0  0  0  0
  1  2  1  0  0  0  0
  2  3  1  0  0  0  0
  5 12  1  0  0  0  0
  5  4  2  0  0  0  0
  6  5  1  0  0  0  0
  7  6  1  0  0  0  0
  8  7  1  0  0  0  0
  8 15  1  0  0  0  0
  9  6  2  0  0  0  0
  9 10  1  0  0  0  0
 10  1  2  0  0  0  0
 13  8  1  0  0  0  0
 14  8  1  0  0  0  0
 16  9  1  0  0  0  0
 17 10  1  0  0  0  0
M  RAD  4   2   2   3   3   4   2  11   2
M  END
