Coordinates from ORCA-job 4-MeOPhN2+_B3LYPG-6-31G_dp-d09-49-n800
 OpenBabel11261919463D

 17 16  0  0  0  0  0  0  0  0999 V2000
   -1.4351   -0.1748   -0.0438 C   0  0  0  0  0  0  0  0  0  0  0  0
   -2.7877   -0.2019    0.0583 N   0  0  0  0  0  0  0  0  0  0  0  0
   -3.9045   -0.2222    0.1393 N   0  0  0  0  0  0  0  0  0  0  0  0
   -0.7423    1.0426   -0.0124 C   0  0  0  0  0  0  0  0  0  0  0  0
    0.5990    1.1410   -0.1076 C   0  0  0  0  0  0  0  0  0  0  0  0
    1.3418   -0.0786   -0.2478 C   0  0  0  0  0  0  0  0  0  0  0  0
    2.6467    0.0674   -0.3353 O   0  0  0  0  0  0  0  0  0  0  0  0
    3.5236   -1.0742   -0.4779 C   0  0  0  0  0  0  0  0  0  0  0  0
    0.6640   -1.3309   -0.2834 C   0  0  0  0  0  0  0  0  0  0  0  0
   -0.7065   -1.3906   -0.1835 C   0  0  0  0  0  0  0  0  0  0  0  0
   -2.6504    3.7490    0.3196 H   0  0  0  0  0  0  0  0  0  0  0  0
    1.1451    2.0801   -0.0839 H   0  0  0  0  0  0  0  0  0  0  0  0
    4.5266   -0.6549   -0.5188 H   0  0  0  0  0  0  0  0  0  0  0  0
    3.3032   -1.6084   -1.4061 H   0  0  0  0  0  0  0  0  0  0  0  0
    3.4286   -1.7356    0.3875 H   0  0  0  0  0  0  0  0  0  0  0  0
    1.2241   -2.2512   -0.3899 H   0  0  0  0  0  0  0  0  0  0  0  0
   -1.2312   -2.3416   -0.2097 H   0  0  0  0  0  0  0  0  0  0  0  0
  1  4  1  0  0  0  0
  1  2  1  0  0  0  0
  2  3  1  0  0  0  0
  5 12  1  0  0  0  0
  5  4  2  0  0  0  0
  6  5  1  0  0  0  0
  7  6  1  0  0  0  0
  8  7  1  0  0  0  0
  8 15  1  0  0  0  0
  9  6  2  0  0  0  0
  9 10  1  0  0  0  0
 10  1  2  0  0  0  0
 13  8  1  0  0  0  0
 14  8  1  0  0  0  0
 16  9  1  0  0  0  0
 17 10  1  0  0  0  0
M  RAD  4   2   2   3   3   4   2  11   2
M  END
