Coordinates from ORCA-job 4-MeOPhN2+_B3LYPG-6-31G_dp-d09-49-n800
 OpenBabel11261919463D

 17 17  0  0  0  0  0  0  0  0999 V2000
   -1.4928   -0.0625   -0.0320 C   0  0  0  0  0  0  0  0  0  0  0  0
   -2.8455   -0.1049    0.0680 N   0  0  0  0  0  0  0  0  0  0  0  0
   -3.9629   -0.1353    0.1508 N   0  0  0  0  0  0  0  0  0  0  0  0
   -0.8402    1.1989    0.0056 C   0  0  0  0  0  0  0  0  0  0  0  0
    0.5257    1.2251   -0.0958 C   0  0  0  0  0  0  0  0  0  0  0  0
    1.2626    0.0156   -0.2349 C   0  0  0  0  0  0  0  0  0  0  0  0
    2.5705    0.1626   -0.3224 O   0  0  0  0  0  0  0  0  0  0  0  0
    3.4427   -0.9796   -0.4654 C   0  0  0  0  0  0  0  0  0  0  0  0
    0.5900   -1.2347   -0.2708 C   0  0  0  0  0  0  0  0  0  0  0  0
   -0.7823   -1.2797   -0.1701 C   0  0  0  0  0  0  0  0  0  0  0  0
   -1.4428    2.1546    0.1174 H   0  0  0  0  0  0  0  0  0  0  0  0
    1.0735    2.1602   -0.0724 H   0  0  0  0  0  0  0  0  0  0  0  0
    4.4475   -0.5644   -0.5070 H   0  0  0  0  0  0  0  0  0  0  0  0
    3.2217   -1.5146   -1.3933 H   0  0  0  0  0  0  0  0  0  0  0  0
    3.3478   -1.6423    0.3994 H   0  0  0  0  0  0  0  0  0  0  0  0
    1.1434   -2.1590   -0.3769 H   0  0  0  0  0  0  0  0  0  0  0  0
   -1.3140   -2.2248   -0.1955 H   0  0  0  0  0  0  0  0  0  0  0  0
  1  4  1  0  0  0  0
  1  2  1  0  0  0  0
  2  3  1  0  0  0  0
  4 11  1  0  0  0  0
  5 12  1  0  0  0  0
  5  4  2  0  0  0  0
  6  5  1  0  0  0  0
  7  6  1  0  0  0  0
  8  7  1  0  0  0  0
  8 15  1  0  0  0  0
  9  6  2  0  0  0  0
  9 10  1  0  0  0  0
 10  1  2  0  0  0  0
 13  8  1  0  0  0  0
 14  8  1  0  0  0  0
 16  9  1  0  0  0  0
 17 10  1  0  0  0  0
M  RAD  2   2   2   3   3
M  END
