Coordinates from ORCA-job 4-MeOPhN2+_B3LYPG-6-31G_dp-d09-49-n800
 OpenBabel11261919463D

 17 16  0  0  0  0  0  0  0  0999 V2000
   -1.4434   -0.1606   -0.0428 C   0  0  0  0  0  0  0  0  0  0  0  0
   -2.7953   -0.1843    0.0590 N   0  0  0  0  0  0  0  0  0  0  0  0
   -3.9118   -0.2018    0.1432 N   0  0  0  0  0  0  0  0  0  0  0  0
   -0.7477    1.0555   -0.0118 C   0  0  0  0  0  0  0  0  0  0  0  0
    0.5937    1.1538   -0.1067 C   0  0  0  0  0  0  0  0  0  0  0  0
    1.3341   -0.0669   -0.2467 C   0  0  0  0  0  0  0  0  0  0  0  0
    2.6391    0.0779   -0.3341 O   0  0  0  0  0  0  0  0  0  0  0  0
    3.5150   -1.0647   -0.4763 C   0  0  0  0  0  0  0  0  0  0  0  0
    0.6550   -1.3184   -0.2821 C   0  0  0  0  0  0  0  0  0  0  0  0
   -0.7157   -1.3766   -0.1822 C   0  0  0  0  0  0  0  0  0  0  0  0
   -2.5213    3.5457    0.2967 H   0  0  0  0  0  0  0  0  0  0  0  0
    1.1389    2.0928   -0.0830 H   0  0  0  0  0  0  0  0  0  0  0  0
    4.5183   -0.6462   -0.5171 H   0  0  0  0  0  0  0  0  0  0  0  0
    3.2942   -1.5988   -1.4044 H   0  0  0  0  0  0  0  0  0  0  0  0
    3.4193   -1.7256    0.3894 H   0  0  0  0  0  0  0  0  0  0  0  0
    1.2139   -2.2393   -0.3884 H   0  0  0  0  0  0  0  0  0  0  0  0
   -1.2412   -2.3270   -0.2084 H   0  0  0  0  0  0  0  0  0  0  0  0
  1  4  1  0  0  0  0
  1  2  1  0  0  0  0
  2  3  1  0  0  0  0
  5 12  1  0  0  0  0
  5  4  2  0  0  0  0
  6  5  1  0  0  0  0
  7  6  1  0  0  0  0
  8  7  1  0  0  0  0
  8 15  1  0  0  0  0
  9  6  2  0  0  0  0
  9 10  1  0  0  0  0
 10  1  2  0  0  0  0
 13  8  1  0  0  0  0
 14  8  1  0  0  0  0
 16  9  1  0  0  0  0
 17 10  1  0  0  0  0
M  RAD  4   2   2   3   3   4   2  11   2
M  END
