Coordinates from ORCA-job 4-MeOPhN2+_B3LYPG-6-31G_dp-d09-49-n800
 OpenBabel11261919463D

 17 16  0  0  0  0  0  0  0  0999 V2000
   -1.4230   -0.3030   -0.0533 C   0  0  0  0  0  0  0  0  0  0  0  0
   -2.7768   -0.3716    0.0457 N   0  0  0  0  0  0  0  0  0  0  0  0
   -3.8927   -0.4246    0.1274 N   0  0  0  0  0  0  0  0  0  0  0  0
   -0.7740    0.9382   -0.0159 C   0  0  0  0  0  0  0  0  0  0  0  0
    0.5673    1.0618   -0.1091 C   0  0  0  0  0  0  0  0  0  0  0  0
    1.3446   -0.1349   -0.2512 C   0  0  0  0  0  0  0  0  0  0  0  0
    2.6469    0.0458   -0.3359 O   0  0  0  0  0  0  0  0  0  0  0  0
    3.5520   -1.0721   -0.4803 C   0  0  0  0  0  0  0  0  0  0  0  0
    0.7022   -1.4056   -0.2917 C   0  0  0  0  0  0  0  0  0  0  0  0
   -0.6659   -1.5014   -0.1947 C   0  0  0  0  0  0  0  0  0  0  0  0
   -2.9170    4.9223    0.4159 H   0  0  0  0  0  0  0  0  0  0  0  0
    1.0950    2.0126   -0.0826 H   0  0  0  0  0  0  0  0  0  0  0  0
    4.5446   -0.6281   -0.5183 H   0  0  0  0  0  0  0  0  0  0  0  0
    3.3474   -1.6096   -1.4102 H   0  0  0  0  0  0  0  0  0  0  0  0
    3.4730   -1.7390    0.3826 H   0  0  0  0  0  0  0  0  0  0  0  0
    1.2876   -2.3099   -0.3993 H   0  0  0  0  0  0  0  0  0  0  0  0
   -1.1663   -2.4657   -0.2245 H   0  0  0  0  0  0  0  0  0  0  0  0
  1  4  1  0  0  0  0
  1  2  1  0  0  0  0
  2  3  1  0  0  0  0
  5 12  1  0  0  0  0
  5  4  2  0  0  0  0
  6  5  1  0  0  0  0
  7  6  1  0  0  0  0
  8  7  1  0  0  0  0
  8 15  1  0  0  0  0
  9  6  2  0  0  0  0
  9 10  1  0  0  0  0
 10  1  2  0  0  0  0
 13  8  1  0  0  0  0
 14  8  1  0  0  0  0
 16  9  1  0  0  0  0
 17 10  1  0  0  0  0
M  RAD  4   2   2   3   3   4   2  11   2
M  END
