Coordinates from ORCA-job 4-MeOPhN2+_B3LYPG-6-31G_dp-d09-49-n800
 OpenBabel11261919463D

 17 17  0  0  0  0  0  0  0  0999 V2000
   -1.4878   -0.0802   -0.0338 C   0  0  0  0  0  0  0  0  0  0  0  0
   -2.8394   -0.1176    0.0668 N   0  0  0  0  0  0  0  0  0  0  0  0
   -3.9566   -0.1444    0.1501 N   0  0  0  0  0  0  0  0  0  0  0  0
   -0.8247    1.1708    0.0024 C   0  0  0  0  0  0  0  0  0  0  0  0
    0.5361    1.2161   -0.0973 C   0  0  0  0  0  0  0  0  0  0  0  0
    1.2722    0.0041   -0.2364 C   0  0  0  0  0  0  0  0  0  0  0  0
    2.5797    0.1506   -0.3239 O   0  0  0  0  0  0  0  0  0  0  0  0
    3.4525   -0.9917   -0.4669 C   0  0  0  0  0  0  0  0  0  0  0  0
    0.5993   -1.2471   -0.2725 C   0  0  0  0  0  0  0  0  0  0  0  0
   -0.7726   -1.2964   -0.1721 C   0  0  0  0  0  0  0  0  0  0  0  0
   -1.5941    2.3687    0.1434 H   0  0  0  0  0  0  0  0  0  0  0  0
    1.0814    2.1522   -0.0736 H   0  0  0  0  0  0  0  0  0  0  0  0
    4.4570   -0.5759   -0.5084 H   0  0  0  0  0  0  0  0  0  0  0  0
    3.2316   -1.5264   -1.3949 H   0  0  0  0  0  0  0  0  0  0  0  0
    3.3576   -1.6542    0.3979 H   0  0  0  0  0  0  0  0  0  0  0  0
    1.1546   -2.1702   -0.3786 H   0  0  0  0  0  0  0  0  0  0  0  0
   -1.3019   -2.2431   -0.1978 H   0  0  0  0  0  0  0  0  0  0  0  0
  1  4  1  0  0  0  0
  1  2  1  0  0  0  0
  2  3  1  0  0  0  0
  4 11  1  0  0  0  0
  5 12  1  0  0  0  0
  5  4  2  0  0  0  0
  6  5  1  0  0  0  0
  7  6  1  0  0  0  0
  8  7  1  0  0  0  0
  8 15  1  0  0  0  0
  9  6  2  0  0  0  0
  9 10  1  0  0  0  0
 10  1  2  0  0  0  0
 13  8  1  0  0  0  0
 14  8  1  0  0  0  0
 16  9  1  0  0  0  0
 17 10  1  0  0  0  0
M  RAD  2   2   2   3   3
M  END
