Coordinates from ORCA-job 4-MeOPhN2+_B3LYPG-6-31G_dp-d09-49-n800
 OpenBabel11261919463D

 17 17  0  0  0  0  0  0  0  0999 V2000
   -1.4946   -0.0565   -0.0315 C   0  0  0  0  0  0  0  0  0  0  0  0
   -2.8477   -0.0997    0.0687 N   0  0  0  0  0  0  0  0  0  0  0  0
   -3.9652   -0.1306    0.1516 N   0  0  0  0  0  0  0  0  0  0  0  0
   -0.8447    1.2074    0.0066 C   0  0  0  0  0  0  0  0  0  0  0  0
    0.5222    1.2284   -0.0956 C   0  0  0  0  0  0  0  0  0  0  0  0
    1.2596    0.0195   -0.2347 C   0  0  0  0  0  0  0  0  0  0  0  0
    2.5675    0.1668   -0.3223 O   0  0  0  0  0  0  0  0  0  0  0  0
    3.4396   -0.9756   -0.4647 C   0  0  0  0  0  0  0  0  0  0  0  0
    0.5868   -1.2303   -0.2706 C   0  0  0  0  0  0  0  0  0  0  0  0
   -0.7856   -1.2741   -0.1696 C   0  0  0  0  0  0  0  0  0  0  0  0
   -1.3926    2.0797    0.1090 H   0  0  0  0  0  0  0  0  0  0  0  0
    1.0705    2.1634   -0.0721 H   0  0  0  0  0  0  0  0  0  0  0  0
    4.4445   -0.5605   -0.5063 H   0  0  0  0  0  0  0  0  0  0  0  0
    3.2188   -1.5108   -1.3925 H   0  0  0  0  0  0  0  0  0  0  0  0
    3.3444   -1.6379    0.4002 H   0  0  0  0  0  0  0  0  0  0  0  0
    1.1396   -2.1550   -0.3767 H   0  0  0  0  0  0  0  0  0  0  0  0
   -1.3180   -2.2188   -0.1950 H   0  0  0  0  0  0  0  0  0  0  0  0
  1  4  1  0  0  0  0
  1  2  1  0  0  0  0
  2  3  1  0  0  0  0
  4 11  1  0  0  0  0
  5 12  1  0  0  0  0
  5  4  2  0  0  0  0
  6  5  1  0  0  0  0
  7  6  1  0  0  0  0
  8  7  1  0  0  0  0
  8 15  1  0  0  0  0
  9  6  2  0  0  0  0
  9 10  1  0  0  0  0
 10  1  2  0  0  0  0
 13  8  1  0  0  0  0
 14  8  1  0  0  0  0
 16  9  1  0  0  0  0
 17 10  1  0  0  0  0
M  RAD  2   2   2   3   3
M  END
