Coordinates from ORCA-job 4-MeOPhN2+_B3LYPG-6-31G_dp-d09-49-n800
 OpenBabel11261919463D

 17 16  0  0  0  0  0  0  0  0999 V2000
   -1.4243   -0.3202   -0.0544 C   0  0  0  0  0  0  0  0  0  0  0  0
   -2.7779   -0.3947    0.0440 N   0  0  0  0  0  0  0  0  0  0  0  0
   -3.8936   -0.4523    0.1253 N   0  0  0  0  0  0  0  0  0  0  0  0
   -0.7812    0.9239   -0.0165 C   0  0  0  0  0  0  0  0  0  0  0  0
    0.5597    1.0531   -0.1093 C   0  0  0  0  0  0  0  0  0  0  0  0
    1.3423   -0.1401   -0.2514 C   0  0  0  0  0  0  0  0  0  0  0  0
    2.6439    0.0462   -0.3357 O   0  0  0  0  0  0  0  0  0  0  0  0
    3.5537   -1.0678   -0.4802 C   0  0  0  0  0  0  0  0  0  0  0  0
    0.7055   -1.4137   -0.2924 C   0  0  0  0  0  0  0  0  0  0  0  0
   -0.6622   -1.5155   -0.1959 C   0  0  0  0  0  0  0  0  0  0  0  0
   -2.9143    5.0488    0.4248 H   0  0  0  0  0  0  0  0  0  0  0  0
    1.0835    2.0061   -0.0824 H   0  0  0  0  0  0  0  0  0  0  0  0
    4.5444   -0.6198   -0.5178 H   0  0  0  0  0  0  0  0  0  0  0  0
    3.3516   -1.6061   -1.4102 H   0  0  0  0  0  0  0  0  0  0  0  0
    3.4773   -1.7354    0.3826 H   0  0  0  0  0  0  0  0  0  0  0  0
    1.2949   -2.3153   -0.3999 H   0  0  0  0  0  0  0  0  0  0  0  0
   -1.1583   -2.4820   -0.2260 H   0  0  0  0  0  0  0  0  0  0  0  0
  1  4  1  0  0  0  0
  1  2  1  0  0  0  0
  2  3  1  0  0  0  0
  5 12  1  0  0  0  0
  5  4  2  0  0  0  0
  6  5  1  0  0  0  0
  7  6  1  0  0  0  0
  8  7  1  0  0  0  0
  8 15  1  0  0  0  0
  9  6  2  0  0  0  0
  9 10  1  0  0  0  0
 10  1  2  0  0  0  0
 13  8  1  0  0  0  0
 14  8  1  0  0  0  0
 16  9  1  0  0  0  0
 17 10  1  0  0  0  0
M  RAD  4   2   2   3   3   4   2  11   2
M  END
