Coordinates from ORCA-job 4-MeOPhN2+_B3LYPG-6-31G_dp-d09-49-n800
 OpenBabel11261919463D

 17 16  0  0  0  0  0  0  0  0999 V2000
   -1.4274   -0.3504   -0.0565 C   0  0  0  0  0  0  0  0  0  0  0  0
   -2.7807   -0.4358    0.0410 N   0  0  0  0  0  0  0  0  0  0  0  0
   -3.8960   -0.5019    0.1215 N   0  0  0  0  0  0  0  0  0  0  0  0
   -0.7954    0.8994   -0.0177 C   0  0  0  0  0  0  0  0  0  0  0  0
    0.5449    1.0382   -0.1096 C   0  0  0  0  0  0  0  0  0  0  0  0
    1.3371   -0.1484   -0.2518 C   0  0  0  0  0  0  0  0  0  0  0  0
    2.6374    0.0483   -0.3353 O   0  0  0  0  0  0  0  0  0  0  0  0
    3.5558   -1.0586   -0.4796 C   0  0  0  0  0  0  0  0  0  0  0  0
    0.7107   -1.4271   -0.2935 C   0  0  0  0  0  0  0  0  0  0  0  0
   -0.6562   -1.5398   -0.1978 C   0  0  0  0  0  0  0  0  0  0  0  0
   -2.8952    5.2585    0.4389 H   0  0  0  0  0  0  0  0  0  0  0  0
    1.0615    1.9951   -0.0821 H   0  0  0  0  0  0  0  0  0  0  0  0
    4.5431   -0.6030   -0.5167 H   0  0  0  0  0  0  0  0  0  0  0  0
    3.3583   -1.5982   -1.4100 H   0  0  0  0  0  0  0  0  0  0  0  0
    3.4843   -1.7270    0.3828 H   0  0  0  0  0  0  0  0  0  0  0  0
    1.3074   -2.3239   -0.4008 H   0  0  0  0  0  0  0  0  0  0  0  0
   -1.1447   -2.5102   -0.2284 H   0  0  0  0  0  0  0  0  0  0  0  0
  1  4  1  0  0  0  0
  1  2  1  0  0  0  0
  2  3  1  0  0  0  0
  5 12  1  0  0  0  0
  5  4  2  0  0  0  0
  6  5  1  0  0  0  0
  7  6  1  0  0  0  0
  8  7  1  0  0  0  0
  8 15  1  0  0  0  0
  9  6  2  0  0  0  0
  9 10  1  0  0  0  0
 10  1  2  0  0  0  0
 13  8  1  0  0  0  0
 14  8  1  0  0  0  0
 16  9  1  0  0  0  0
 17 10  1  0  0  0  0
M  RAD  4   2   2   3   3   4   2  11   2
M  END
