Coordinates from ORCA-job 4-MeOPhN2+_B3LYPG-6-31G_dp-d09-49-n800
 OpenBabel11261919463D

 17 16  0  0  0  0  0  0  0  0999 V2000
   -1.4225   -0.2950   -0.0528 C   0  0  0  0  0  0  0  0  0  0  0  0
   -2.7763   -0.3609    0.0464 N   0  0  0  0  0  0  0  0  0  0  0  0
   -3.8923   -0.4119    0.1283 N   0  0  0  0  0  0  0  0  0  0  0  0
   -0.7706    0.9446   -0.0157 C   0  0  0  0  0  0  0  0  0  0  0  0
    0.5708    1.0659   -0.1091 C   0  0  0  0  0  0  0  0  0  0  0  0
    1.3457   -0.1324   -0.2511 C   0  0  0  0  0  0  0  0  0  0  0  0
    2.6482    0.0457   -0.3360 O   0  0  0  0  0  0  0  0  0  0  0  0
    3.5512   -1.0740   -0.4804 C   0  0  0  0  0  0  0  0  0  0  0  0
    0.7007   -1.4019   -0.2914 C   0  0  0  0  0  0  0  0  0  0  0  0
   -0.6676   -1.4949   -0.1942 C   0  0  0  0  0  0  0  0  0  0  0  0
   -2.9181    4.8639    0.4119 H   0  0  0  0  0  0  0  0  0  0  0  0
    1.1003    2.0157   -0.0827 H   0  0  0  0  0  0  0  0  0  0  0  0
    4.5446   -0.6319   -0.5185 H   0  0  0  0  0  0  0  0  0  0  0  0
    3.3454   -1.6113   -1.4102 H   0  0  0  0  0  0  0  0  0  0  0  0
    3.4710   -1.7407    0.3827 H   0  0  0  0  0  0  0  0  0  0  0  0
    1.2842   -2.3074   -0.3989 H   0  0  0  0  0  0  0  0  0  0  0  0
   -1.1699   -2.4582   -0.2237 H   0  0  0  0  0  0  0  0  0  0  0  0
  1  4  1  0  0  0  0
  1  2  1  0  0  0  0
  2  3  1  0  0  0  0
  5 12  1  0  0  0  0
  5  4  2  0  0  0  0
  6  5  1  0  0  0  0
  7  6  1  0  0  0  0
  8  7  1  0  0  0  0
  8 15  1  0  0  0  0
  9  6  2  0  0  0  0
  9 10  1  0  0  0  0
 10  1  2  0  0  0  0
 13  8  1  0  0  0  0
 14  8  1  0  0  0  0
 16  9  1  0  0  0  0
 17 10  1  0  0  0  0
M  RAD  4   2   2   3   3   4   2  11   2
M  END
