Coordinates from ORCA-job 4-MeOPhN2+_B3LYPG-6-31G_dp-d09-49-n800
 OpenBabel11261919463D

 17 16  0  0  0  0  0  0  0  0999 V2000
   -1.4684   -0.1267   -0.0384 C   0  0  0  0  0  0  0  0  0  0  0  0
   -2.8188   -0.1488    0.0635 N   0  0  0  0  0  0  0  0  0  0  0  0
   -3.9354   -0.1644    0.1479 N   0  0  0  0  0  0  0  0  0  0  0  0
   -0.7767    1.0955   -0.0065 C   0  0  0  0  0  0  0  0  0  0  0  0
    0.5689    1.1864   -0.1025 C   0  0  0  0  0  0  0  0  0  0  0  0
    1.3057   -0.0330   -0.2423 C   0  0  0  0  0  0  0  0  0  0  0  0
    2.6114    0.1121   -0.3298 O   0  0  0  0  0  0  0  0  0  0  0  0
    3.4863   -1.0306   -0.4717 C   0  0  0  0  0  0  0  0  0  0  0  0
    0.6284   -1.2845   -0.2779 C   0  0  0  0  0  0  0  0  0  0  0  0
   -0.7429   -1.3414   -0.1778 C   0  0  0  0  0  0  0  0  0  0  0  0
   -2.0883    2.9912    0.2249 H   0  0  0  0  0  0  0  0  0  0  0  0
    1.1102    2.1258   -0.0781 H   0  0  0  0  0  0  0  0  0  0  0  0
    4.4900   -0.6127   -0.5127 H   0  0  0  0  0  0  0  0  0  0  0  0
    3.2658   -1.5651   -1.3997 H   0  0  0  0  0  0  0  0  0  0  0  0
    3.3907   -1.6916    0.3939 H   0  0  0  0  0  0  0  0  0  0  0  0
    1.1866   -2.2058   -0.3843 H   0  0  0  0  0  0  0  0  0  0  0  0
   -1.2684   -2.2912   -0.2040 H   0  0  0  0  0  0  0  0  0  0  0  0
  1  4  1  0  0  0  0
  1  2  1  0  0  0  0
  2  3  1  0  0  0  0
  5 12  1  0  0  0  0
  5  4  2  0  0  0  0
  6  5  1  0  0  0  0
  7  6  1  0  0  0  0
  8  7  1  0  0  0  0
  8 15  1  0  0  0  0
  9  6  2  0  0  0  0
  9 10  1  0  0  0  0
 10  1  2  0  0  0  0
 13  8  1  0  0  0  0
 14  8  1  0  0  0  0
 16  9  1  0  0  0  0
 17 10  1  0  0  0  0
M  RAD  4   2   2   3   3   4   2  11   2
M  END
