Coordinates from ORCA-job 4-MeOPhN2+_B3LYPG-6-31G_dp-d09-49-n800
 OpenBabel11261919463D

 17 16  0  0  0  0  0  0  0  0999 V2000
   -1.4347   -0.1754   -0.0443 C   0  0  0  0  0  0  0  0  0  0  0  0
   -2.7873   -0.2026    0.0574 N   0  0  0  0  0  0  0  0  0  0  0  0
   -3.9038   -0.2233    0.1415 N   0  0  0  0  0  0  0  0  0  0  0  0
   -0.7423    1.0423   -0.0127 C   0  0  0  0  0  0  0  0  0  0  0  0
    0.5990    1.1402   -0.1077 C   0  0  0  0  0  0  0  0  0  0  0  0
    1.3419   -0.0793   -0.2479 C   0  0  0  0  0  0  0  0  0  0  0  0
    2.6468    0.0670   -0.3352 O   0  0  0  0  0  0  0  0  0  0  0  0
    3.5239   -1.0744   -0.4777 C   0  0  0  0  0  0  0  0  0  0  0  0
    0.6643   -1.3316   -0.2837 C   0  0  0  0  0  0  0  0  0  0  0  0
   -0.7061   -1.3912   -0.1840 C   0  0  0  0  0  0  0  0  0  0  0  0
   -2.6551    3.7577    0.3201 H   0  0  0  0  0  0  0  0  0  0  0  0
    1.1453    2.0792   -0.0839 H   0  0  0  0  0  0  0  0  0  0  0  0
    4.5269   -0.6549   -0.5184 H   0  0  0  0  0  0  0  0  0  0  0  0
    3.3038   -1.6085   -1.4060 H   0  0  0  0  0  0  0  0  0  0  0  0
    3.4290   -1.7359    0.3876 H   0  0  0  0  0  0  0  0  0  0  0  0
    1.2245   -2.2519   -0.3902 H   0  0  0  0  0  0  0  0  0  0  0  0
   -1.2310   -2.3421   -0.2104 H   0  0  0  0  0  0  0  0  0  0  0  0
  1  4  1  0  0  0  0
  1  2  1  0  0  0  0
  2  3  1  0  0  0  0
  5 12  1  0  0  0  0
  5  4  2  0  0  0  0
  6  5  1  0  0  0  0
  7  6  1  0  0  0  0
  8  7  1  0  0  0  0
  8 15  1  0  0  0  0
  9  6  2  0  0  0  0
  9 10  1  0  0  0  0
 10  1  2  0  0  0  0
 13  8  1  0  0  0  0
 14  8  1  0  0  0  0
 16  9  1  0  0  0  0
 17 10  1  0  0  0  0
M  RAD  4   2   2   3   3   4   2  11   2
M  END
