Coordinates from ORCA-job 4-MeOPhN2+_B3LYPG-6-31G_dp-d09-49-n800
 OpenBabel11261919463D

 17 17  0  0  0  0  0  0  0  0999 V2000
   -1.4866   -0.0843   -0.0342 C   0  0  0  0  0  0  0  0  0  0  0  0
   -2.8379   -0.1202    0.0666 N   0  0  0  0  0  0  0  0  0  0  0  0
   -3.9551   -0.1460    0.1501 N   0  0  0  0  0  0  0  0  0  0  0  0
   -0.8208    1.1638    0.0016 C   0  0  0  0  0  0  0  0  0  0  0  0
    0.5387    1.2141   -0.0977 C   0  0  0  0  0  0  0  0  0  0  0  0
    1.2746    0.0014   -0.2369 C   0  0  0  0  0  0  0  0  0  0  0  0
    2.5820    0.1477   -0.3244 O   0  0  0  0  0  0  0  0  0  0  0  0
    3.4549   -0.9946   -0.4672 C   0  0  0  0  0  0  0  0  0  0  0  0
    0.6015   -1.2500   -0.2730 C   0  0  0  0  0  0  0  0  0  0  0  0
   -0.7704   -1.3002   -0.1726 C   0  0  0  0  0  0  0  0  0  0  0  0
   -1.6310    2.4184    0.1498 H   0  0  0  0  0  0  0  0  0  0  0  0
    1.0833    2.1505   -0.0739 H   0  0  0  0  0  0  0  0  0  0  0  0
    4.4594   -0.5787   -0.5086 H   0  0  0  0  0  0  0  0  0  0  0  0
    3.2342   -1.5293   -1.3952 H   0  0  0  0  0  0  0  0  0  0  0  0
    3.3599   -1.6570    0.3977 H   0  0  0  0  0  0  0  0  0  0  0  0
    1.1573   -2.1728   -0.3792 H   0  0  0  0  0  0  0  0  0  0  0  0
   -1.2990   -2.2473   -0.1984 H   0  0  0  0  0  0  0  0  0  0  0  0
  1  4  1  0  0  0  0
  1  2  1  0  0  0  0
  2  3  1  0  0  0  0
  4 11  1  0  0  0  0
  5 12  1  0  0  0  0
  5  4  2  0  0  0  0
  6  5  1  0  0  0  0
  7  6  1  0  0  0  0
  8  7  1  0  0  0  0
  8 15  1  0  0  0  0
  9  6  2  0  0  0  0
  9 10  1  0  0  0  0
 10  1  2  0  0  0  0
 13  8  1  0  0  0  0
 14  8  1  0  0  0  0
 16  9  1  0  0  0  0
 17 10  1  0  0  0  0
M  RAD  2   2   2   3   3
M  END
