Coordinates from ORCA-job 4-MeOPhN2+_B3LYPG-6-31G_dp-d09-49-n800
 OpenBabel11261919463D

 17 16  0  0  0  0  0  0  0  0999 V2000
   -1.4315   -0.1826   -0.0450 C   0  0  0  0  0  0  0  0  0  0  0  0
   -2.7844   -0.2119    0.0567 N   0  0  0  0  0  0  0  0  0  0  0  0
   -3.9009   -0.2344    0.1406 N   0  0  0  0  0  0  0  0  0  0  0  0
   -0.7412    1.0362   -0.0130 C   0  0  0  0  0  0  0  0  0  0  0  0
    0.6002    1.1342   -0.1080 C   0  0  0  0  0  0  0  0  0  0  0  0
    1.3445   -0.0844   -0.2484 C   0  0  0  0  0  0  0  0  0  0  0  0
    2.6494    0.0630   -0.3355 O   0  0  0  0  0  0  0  0  0  0  0  0
    3.5274   -1.0777   -0.4783 C   0  0  0  0  0  0  0  0  0  0  0  0
    0.6681   -1.3374   -0.2844 C   0  0  0  0  0  0  0  0  0  0  0  0
   -0.7022   -1.3980   -0.1848 C   0  0  0  0  0  0  0  0  0  0  0  0
   -2.7043    3.8502    0.3297 H   0  0  0  0  0  0  0  0  0  0  0  0
    1.1465    2.0734   -0.0841 H   0  0  0  0  0  0  0  0  0  0  0  0
    4.5301   -0.6574   -0.5189 H   0  0  0  0  0  0  0  0  0  0  0  0
    3.3077   -1.6119   -1.4067 H   0  0  0  0  0  0  0  0  0  0  0  0
    3.4329   -1.7395    0.3869 H   0  0  0  0  0  0  0  0  0  0  0  0
    1.2291   -2.2571   -0.3910 H   0  0  0  0  0  0  0  0  0  0  0  0
   -1.2265   -2.3494   -0.2114 H   0  0  0  0  0  0  0  0  0  0  0  0
  1  4  1  0  0  0  0
  1  2  1  0  0  0  0
  2  3  1  0  0  0  0
  5 12  1  0  0  0  0
  5  4  2  0  0  0  0
  6  5  1  0  0  0  0
  7  6  1  0  0  0  0
  8  7  1  0  0  0  0
  8 15  1  0  0  0  0
  9  6  2  0  0  0  0
  9 10  1  0  0  0  0
 10  1  2  0  0  0  0
 13  8  1  0  0  0  0
 14  8  1  0  0  0  0
 16  9  1  0  0  0  0
 17 10  1  0  0  0  0
M  RAD  4   2   2   3   3   4   2  11   2
M  END
