Coordinates from ORCA-job 4-MeOPhN2+_B3LYPG-6-31G_dp-d09-49-n800
 OpenBabel11261919463D

 17 17  0  0  0  0  0  0  0  0999 V2000
   -1.4898   -0.0730   -0.0331 C   0  0  0  0  0  0  0  0  0  0  0  0
   -2.8418   -0.1128    0.0671 N   0  0  0  0  0  0  0  0  0  0  0  0
   -3.9591   -0.1414    0.1502 N   0  0  0  0  0  0  0  0  0  0  0  0
   -0.8313    1.1825    0.0038 C   0  0  0  0  0  0  0  0  0  0  0  0
    0.5318    1.2197   -0.0965 C   0  0  0  0  0  0  0  0  0  0  0  0
    1.2682    0.0087   -0.2356 C   0  0  0  0  0  0  0  0  0  0  0  0
    2.5759    0.1555   -0.3231 O   0  0  0  0  0  0  0  0  0  0  0  0
    3.4484   -0.9867   -0.4664 C   0  0  0  0  0  0  0  0  0  0  0  0
    0.5955   -1.2421   -0.2717 C   0  0  0  0  0  0  0  0  0  0  0  0
   -0.7765   -1.2896   -0.1712 C   0  0  0  0  0  0  0  0  0  0  0  0
   -1.5318    2.2826    0.1327 H   0  0  0  0  0  0  0  0  0  0  0  0
    1.0783    2.1553   -0.0730 H   0  0  0  0  0  0  0  0  0  0  0  0
    4.4531   -0.5712   -0.5080 H   0  0  0  0  0  0  0  0  0  0  0  0
    3.2274   -1.5214   -1.3944 H   0  0  0  0  0  0  0  0  0  0  0  0
    3.3536   -1.6495    0.3983 H   0  0  0  0  0  0  0  0  0  0  0  0
    1.1501   -2.1657   -0.3777 H   0  0  0  0  0  0  0  0  0  0  0  0
   -1.3068   -2.2357   -0.1968 H   0  0  0  0  0  0  0  0  0  0  0  0
  1  4  1  0  0  0  0
  1  2  1  0  0  0  0
  2  3  1  0  0  0  0
  4 11  1  0  0  0  0
  5 12  1  0  0  0  0
  5  4  2  0  0  0  0
  6  5  1  0  0  0  0
  7  6  1  0  0  0  0
  8  7  1  0  0  0  0
  8 15  1  0  0  0  0
  9  6  2  0  0  0  0
  9 10  1  0  0  0  0
 10  1  2  0  0  0  0
 13  8  1  0  0  0  0
 14  8  1  0  0  0  0
 16  9  1  0  0  0  0
 17 10  1  0  0  0  0
M  RAD  2   2   2   3   3
M  END
