Coordinates from ORCA-job 4-MeOPhN2+_B3LYPG-6-31G_dp-d09-49-n800
 OpenBabel11261919463D

 17 16  0  0  0  0  0  0  0  0999 V2000
   -1.4562   -0.1424   -0.0407 C   0  0  0  0  0  0  0  0  0  0  0  0
   -2.8074   -0.1631    0.0613 N   0  0  0  0  0  0  0  0  0  0  0  0
   -3.9238   -0.1776    0.1466 N   0  0  0  0  0  0  0  0  0  0  0  0
   -0.7599    1.0745   -0.0096 C   0  0  0  0  0  0  0  0  0  0  0  0
    0.5826    1.1715   -0.1047 C   0  0  0  0  0  0  0  0  0  0  0  0
    1.3206   -0.0494   -0.2446 C   0  0  0  0  0  0  0  0  0  0  0  0
    2.6258    0.0949   -0.3320 O   0  0  0  0  0  0  0  0  0  0  0  0
    3.5009   -1.0482   -0.4739 C   0  0  0  0  0  0  0  0  0  0  0  0
    0.6415   -1.3004   -0.2800 C   0  0  0  0  0  0  0  0  0  0  0  0
   -0.7296   -1.3579   -0.1800 C   0  0  0  0  0  0  0  0  0  0  0  0
   -2.3087    3.2539    0.2602 H   0  0  0  0  0  0  0  0  0  0  0  0
    1.1257    2.1109   -0.0806 H   0  0  0  0  0  0  0  0  0  0  0  0
    4.5045   -0.6303   -0.5148 H   0  0  0  0  0  0  0  0  0  0  0  0
    3.2799   -1.5824   -1.4020 H   0  0  0  0  0  0  0  0  0  0  0  0
    3.4048   -1.7090    0.3918 H   0  0  0  0  0  0  0  0  0  0  0  0
    1.1997   -2.2218   -0.3863 H   0  0  0  0  0  0  0  0  0  0  0  0
   -1.2554   -2.3079   -0.2062 H   0  0  0  0  0  0  0  0  0  0  0  0
  1  4  1  0  0  0  0
  1  2  1  0  0  0  0
  2  3  1  0  0  0  0
  5 12  1  0  0  0  0
  5  4  2  0  0  0  0
  6  5  1  0  0  0  0
  7  6  1  0  0  0  0
  8  7  1  0  0  0  0
  8 15  1  0  0  0  0
  9  6  2  0  0  0  0
  9 10  1  0  0  0  0
 10  1  2  0  0  0  0
 13  8  1  0  0  0  0
 14  8  1  0  0  0  0
 16  9  1  0  0  0  0
 17 10  1  0  0  0  0
M  RAD  4   2   2   3   3   4   2  11   2
M  END
