Coordinates from ORCA-job 4-MeOPhN2+_B3LYPG-6-31G_dp-d09-49-n800
 OpenBabel11261919463D

 17 16  0  0  0  0  0  0  0  0999 V2000
   -1.4270   -0.3464   -0.0562 C   0  0  0  0  0  0  0  0  0  0  0  0
   -2.7803   -0.4302    0.0414 N   0  0  0  0  0  0  0  0  0  0  0  0
   -3.8956   -0.4950    0.1220 N   0  0  0  0  0  0  0  0  0  0  0  0
   -0.7933    0.9026   -0.0175 C   0  0  0  0  0  0  0  0  0  0  0  0
    0.5470    1.0402   -0.1096 C   0  0  0  0  0  0  0  0  0  0  0  0
    1.3379   -0.1473   -0.2517 C   0  0  0  0  0  0  0  0  0  0  0  0
    2.6384    0.0479   -0.3354 O   0  0  0  0  0  0  0  0  0  0  0  0
    3.5556   -1.0600   -0.4797 C   0  0  0  0  0  0  0  0  0  0  0  0
    0.7101   -1.4253   -0.2933 C   0  0  0  0  0  0  0  0  0  0  0  0
   -0.6569   -1.5365   -0.1975 C   0  0  0  0  0  0  0  0  0  0  0  0
   -2.8990    5.2311    0.4372 H   0  0  0  0  0  0  0  0  0  0  0  0
    1.0647    1.9967   -0.0821 H   0  0  0  0  0  0  0  0  0  0  0  0
    4.5434   -0.6055   -0.5169 H   0  0  0  0  0  0  0  0  0  0  0  0
    3.3574   -1.5994   -1.4100 H   0  0  0  0  0  0  0  0  0  0  0  0
    3.4834   -1.7284    0.3828 H   0  0  0  0  0  0  0  0  0  0  0  0
    1.3058   -2.3228   -0.4006 H   0  0  0  0  0  0  0  0  0  0  0  0
   -1.1464   -2.5064   -0.2281 H   0  0  0  0  0  0  0  0  0  0  0  0
  1  4  1  0  0  0  0
  1  2  1  0  0  0  0
  2  3  1  0  0  0  0
  5 12  1  0  0  0  0
  5  4  2  0  0  0  0
  6  5  1  0  0  0  0
  7  6  1  0  0  0  0
  8  7  1  0  0  0  0
  8 15  1  0  0  0  0
  9  6  2  0  0  0  0
  9 10  1  0  0  0  0
 10  1  2  0  0  0  0
 13  8  1  0  0  0  0
 14  8  1  0  0  0  0
 16  9  1  0  0  0  0
 17 10  1  0  0  0  0
M  RAD  4   2   2   3   3   4   2  11   2
M  END
