Coordinates from ORCA-job 4-MeOPhN2+_B3LYPG-6-31G_dp-d09-49-n800
 OpenBabel11261919463D

 17 16  0  0  0  0  0  0  0  0999 V2000
   -1.4577   -0.1409   -0.0403 C   0  0  0  0  0  0  0  0  0  0  0  0
   -2.8088   -0.1618    0.0617 N   0  0  0  0  0  0  0  0  0  0  0  0
   -3.9252   -0.1767    0.1463 N   0  0  0  0  0  0  0  0  0  0  0  0
   -0.7618    1.0764   -0.0092 C   0  0  0  0  0  0  0  0  0  0  0  0
    0.5810    1.1731   -0.1044 C   0  0  0  0  0  0  0  0  0  0  0  0
    1.3189   -0.0476   -0.2443 C   0  0  0  0  0  0  0  0  0  0  0  0
    2.6242    0.0969   -0.3318 O   0  0  0  0  0  0  0  0  0  0  0  0
    3.4992   -1.0461   -0.4737 C   0  0  0  0  0  0  0  0  0  0  0  0
    0.6400   -1.2988   -0.2797 C   0  0  0  0  0  0  0  0  0  0  0  0
   -0.7311   -1.3562   -0.1797 C   0  0  0  0  0  0  0  0  0  0  0  0
   -2.2833    3.2264    0.2564 H   0  0  0  0  0  0  0  0  0  0  0  0
    1.1237    2.1126   -0.0803 H   0  0  0  0  0  0  0  0  0  0  0  0
    4.5029   -0.6282   -0.5147 H   0  0  0  0  0  0  0  0  0  0  0  0
    3.2784   -1.5804   -1.4017 H   0  0  0  0  0  0  0  0  0  0  0  0
    3.4033   -1.7070    0.3920 H   0  0  0  0  0  0  0  0  0  0  0  0
    1.1983   -2.2201   -0.3860 H   0  0  0  0  0  0  0  0  0  0  0  0
   -1.2568   -2.3062   -0.2059 H   0  0  0  0  0  0  0  0  0  0  0  0
  1  4  1  0  0  0  0
  1  2  1  0  0  0  0
  2  3  1  0  0  0  0
  5 12  1  0  0  0  0
  5  4  2  0  0  0  0
  6  5  1  0  0  0  0
  7  6  1  0  0  0  0
  8  7  1  0  0  0  0
  8 15  1  0  0  0  0
  9  6  2  0  0  0  0
  9 10  1  0  0  0  0
 10  1  2  0  0  0  0
 13  8  1  0  0  0  0
 14  8  1  0  0  0  0
 16  9  1  0  0  0  0
 17 10  1  0  0  0  0
M  RAD  4   2   2   3   3   4   2  11   2
M  END
