Coordinates from ORCA-job 4-MeOPhN2+_B3LYPG-6-31G_dp-d09-49-n800
 OpenBabel11261919463D

 17 16  0  0  0  0  0  0  0  0999 V2000
   -1.4216   -0.2802   -0.0518 C   0  0  0  0  0  0  0  0  0  0  0  0
   -2.7755   -0.3409    0.0478 N   0  0  0  0  0  0  0  0  0  0  0  0
   -3.8916   -0.3879    0.1298 N   0  0  0  0  0  0  0  0  0  0  0  0
   -0.7644    0.9567   -0.0154 C   0  0  0  0  0  0  0  0  0  0  0  0
    0.5772    1.0736   -0.1091 C   0  0  0  0  0  0  0  0  0  0  0  0
    1.3476   -0.1278   -0.2510 C   0  0  0  0  0  0  0  0  0  0  0  0
    2.6506    0.0456   -0.3362 O   0  0  0  0  0  0  0  0  0  0  0  0
    3.5496   -1.0774   -0.4805 C   0  0  0  0  0  0  0  0  0  0  0  0
    0.6977   -1.3948   -0.2907 C   0  0  0  0  0  0  0  0  0  0  0  0
   -0.6709   -1.4827   -0.1931 C   0  0  0  0  0  0  0  0  0  0  0  0
   -2.9179    4.7526    0.4043 H   0  0  0  0  0  0  0  0  0  0  0  0
    1.1098    2.0216   -0.0831 H   0  0  0  0  0  0  0  0  0  0  0  0
    4.5445   -0.6388   -0.5190 H   0  0  0  0  0  0  0  0  0  0  0  0
    3.3416   -1.6141   -1.4101 H   0  0  0  0  0  0  0  0  0  0  0  0
    3.4672   -1.7435    0.3828 H   0  0  0  0  0  0  0  0  0  0  0  0
    1.2778   -2.3025   -0.3982 H   0  0  0  0  0  0  0  0  0  0  0  0
   -1.1767   -2.4441   -0.2222 H   0  0  0  0  0  0  0  0  0  0  0  0
  1  4  1  0  0  0  0
  1  2  1  0  0  0  0
  2  3  1  0  0  0  0
  5 12  1  0  0  0  0
  5  4  2  0  0  0  0
  6  5  1  0  0  0  0
  7  6  1  0  0  0  0
  8  7  1  0  0  0  0
  8 15  1  0  0  0  0
  9  6  2  0  0  0  0
  9 10  1  0  0  0  0
 10  1  2  0  0  0  0
 13  8  1  0  0  0  0
 14  8  1  0  0  0  0
 16  9  1  0  0  0  0
 17 10  1  0  0  0  0
M  RAD  4   2   2   3   3   4   2  11   2
M  END
