Coordinates from ORCA-job 4-MeOPhN2+_B3LYPG-6-31G_dp-d09-49-n800
 OpenBabel11261919463D

 17 16  0  0  0  0  0  0  0  0999 V2000
   -1.4455   -0.1573   -0.0425 C   0  0  0  0  0  0  0  0  0  0  0  0
   -2.7973   -0.1802    0.0596 N   0  0  0  0  0  0  0  0  0  0  0  0
   -3.9138   -0.1971    0.1439 N   0  0  0  0  0  0  0  0  0  0  0  0
   -0.7494    1.0587   -0.0115 C   0  0  0  0  0  0  0  0  0  0  0  0
    0.5921    1.1570   -0.1065 C   0  0  0  0  0  0  0  0  0  0  0  0
    1.3320   -0.0639   -0.2464 C   0  0  0  0  0  0  0  0  0  0  0  0
    2.6370    0.0806   -0.3338 O   0  0  0  0  0  0  0  0  0  0  0  0
    3.5127   -1.0621   -0.4758 C   0  0  0  0  0  0  0  0  0  0  0  0
    0.6527   -1.3152   -0.2818 C   0  0  0  0  0  0  0  0  0  0  0  0
   -0.7180   -1.3732   -0.1819 C   0  0  0  0  0  0  0  0  0  0  0  0
   -2.4871    3.4949    0.2906 H   0  0  0  0  0  0  0  0  0  0  0  0
    1.1370    2.0961   -0.0826 H   0  0  0  0  0  0  0  0  0  0  0  0
    4.5161   -0.6438   -0.5167 H   0  0  0  0  0  0  0  0  0  0  0  0
    3.2919   -1.5963   -1.4039 H   0  0  0  0  0  0  0  0  0  0  0  0
    3.4168   -1.7230    0.3899 H   0  0  0  0  0  0  0  0  0  0  0  0
    1.2115   -2.2363   -0.3880 H   0  0  0  0  0  0  0  0  0  0  0  0
   -1.2437   -2.3236   -0.2080 H   0  0  0  0  0  0  0  0  0  0  0  0
  1  4  1  0  0  0  0
  1  2  1  0  0  0  0
  2  3  1  0  0  0  0
  5 12  1  0  0  0  0
  5  4  2  0  0  0  0
  6  5  1  0  0  0  0
  7  6  1  0  0  0  0
  8  7  1  0  0  0  0
  8 15  1  0  0  0  0
  9  6  2  0  0  0  0
  9 10  1  0  0  0  0
 10  1  2  0  0  0  0
 13  8  1  0  0  0  0
 14  8  1  0  0  0  0
 16  9  1  0  0  0  0
 17 10  1  0  0  0  0
M  RAD  4   2   2   3   3   4   2  11   2
M  END
