Coordinates from ORCA-job 4-MeOPhN2+_B3LYPG-6-31G_dp-d09-49-n800
 OpenBabel11261919463D

 17 16  0  0  0  0  0  0  0  0999 V2000
   -1.4592   -0.1394   -0.0401 C   0  0  0  0  0  0  0  0  0  0  0  0
   -2.8101   -0.1604    0.0619 N   0  0  0  0  0  0  0  0  0  0  0  0
   -3.9266   -0.1752    0.1464 N   0  0  0  0  0  0  0  0  0  0  0  0
   -0.7637    1.0786   -0.0089 C   0  0  0  0  0  0  0  0  0  0  0  0
    0.5794    1.1747   -0.1042 C   0  0  0  0  0  0  0  0  0  0  0  0
    1.3172   -0.0459   -0.2441 C   0  0  0  0  0  0  0  0  0  0  0  0
    2.6225    0.0987   -0.3315 O   0  0  0  0  0  0  0  0  0  0  0  0
    3.4977   -1.0441   -0.4735 C   0  0  0  0  0  0  0  0  0  0  0  0
    0.6386   -1.2971   -0.2795 C   0  0  0  0  0  0  0  0  0  0  0  0
   -0.7326   -1.3546   -0.1795 C   0  0  0  0  0  0  0  0  0  0  0  0
   -2.2587    3.1984    0.2525 H   0  0  0  0  0  0  0  0  0  0  0  0
    1.1218    2.1141   -0.0800 H   0  0  0  0  0  0  0  0  0  0  0  0
    4.5013   -0.6261   -0.5144 H   0  0  0  0  0  0  0  0  0  0  0  0
    3.2769   -1.5784   -1.4015 H   0  0  0  0  0  0  0  0  0  0  0  0
    3.4018   -1.7050    0.3923 H   0  0  0  0  0  0  0  0  0  0  0  0
    1.1969   -2.2184   -0.3858 H   0  0  0  0  0  0  0  0  0  0  0  0
   -1.2581   -2.3046   -0.2057 H   0  0  0  0  0  0  0  0  0  0  0  0
  1  4  1  0  0  0  0
  1  2  1  0  0  0  0
  2  3  1  0  0  0  0
  5 12  1  0  0  0  0
  5  4  2  0  0  0  0
  6  5  1  0  0  0  0
  7  6  1  0  0  0  0
  8  7  1  0  0  0  0
  8 15  1  0  0  0  0
  9  6  2  0  0  0  0
  9 10  1  0  0  0  0
 10  1  2  0  0  0  0
 13  8  1  0  0  0  0
 14  8  1  0  0  0  0
 16  9  1  0  0  0  0
 17 10  1  0  0  0  0
M  RAD  4   2   2   3   3   4   2  11   2
M  END
