Coordinates from ORCA-job 4-MeOPhN2+_B3LYPG-6-31G_dp-d09-49-n800
 OpenBabel11261919463D

 17 16  0  0  0  0  0  0  0  0999 V2000
   -1.4808   -0.1021   -0.0358 C   0  0  0  0  0  0  0  0  0  0  0  0
   -2.8313   -0.1311    0.0657 N   0  0  0  0  0  0  0  0  0  0  0  0
   -3.9482   -0.1520    0.1498 N   0  0  0  0  0  0  0  0  0  0  0  0
   -0.8028    1.1340   -0.0018 C   0  0  0  0  0  0  0  0  0  0  0  0
    0.5504    1.2043   -0.0996 C   0  0  0  0  0  0  0  0  0  0  0  0
    1.2861   -0.0114   -0.2391 C   0  0  0  0  0  0  0  0  0  0  0  0
    2.5929    0.1344   -0.3265 O   0  0  0  0  0  0  0  0  0  0  0  0
    3.4666   -1.0080   -0.4688 C   0  0  0  0  0  0  0  0  0  0  0  0
    0.6116   -1.2631   -0.2751 C   0  0  0  0  0  0  0  0  0  0  0  0
   -0.7600   -1.3171   -0.1748 C   0  0  0  0  0  0  0  0  0  0  0  0
   -1.8023    2.6397    0.1782 H   0  0  0  0  0  0  0  0  0  0  0  0
    1.0924    2.1423   -0.0753 H   0  0  0  0  0  0  0  0  0  0  0  0
    4.4708   -0.5913   -0.5099 H   0  0  0  0  0  0  0  0  0  0  0  0
    3.2462   -1.5427   -1.3968 H   0  0  0  0  0  0  0  0  0  0  0  0
    3.3713   -1.6699    0.3964 H   0  0  0  0  0  0  0  0  0  0  0  0
    1.1688   -2.1851   -0.3814 H   0  0  0  0  0  0  0  0  0  0  0  0
   -1.2867   -2.2656   -0.2008 H   0  0  0  0  0  0  0  0  0  0  0  0
  1  4  1  0  0  0  0
  1  2  1  0  0  0  0
  2  3  1  0  0  0  0
  5 12  1  0  0  0  0
  5  4  2  0  0  0  0
  6  5  1  0  0  0  0
  7  6  1  0  0  0  0
  8  7  1  0  0  0  0
  8 15  1  0  0  0  0
  9  6  2  0  0  0  0
  9 10  1  0  0  0  0
 10  1  2  0  0  0  0
 13  8  1  0  0  0  0
 14  8  1  0  0  0  0
 16  9  1  0  0  0  0
 17 10  1  0  0  0  0
M  RAD  4   2   2   3   3   4   2  11   2
M  END
