Coordinates from ORCA-job 4-MeOPhN2+_B3LYPG-6-31G_dp-d09-49-n800
 OpenBabel11261919463D

 17 16  0  0  0  0  0  0  0  0999 V2000
   -1.4707   -0.1230   -0.0380 C   0  0  0  0  0  0  0  0  0  0  0  0
   -2.8211   -0.1458    0.0639 N   0  0  0  0  0  0  0  0  0  0  0  0
   -3.9376   -0.1619    0.1483 N   0  0  0  0  0  0  0  0  0  0  0  0
   -0.7806    1.1009   -0.0059 C   0  0  0  0  0  0  0  0  0  0  0  0
    0.5660    1.1894   -0.1020 C   0  0  0  0  0  0  0  0  0  0  0  0
    1.3025   -0.0295   -0.2418 C   0  0  0  0  0  0  0  0  0  0  0  0
    2.6084    0.1157   -0.3293 O   0  0  0  0  0  0  0  0  0  0  0  0
    3.4832   -1.0269   -0.4712 C   0  0  0  0  0  0  0  0  0  0  0  0
    0.6257   -1.2810   -0.2775 C   0  0  0  0  0  0  0  0  0  0  0  0
   -0.7457   -1.3377   -0.1773 C   0  0  0  0  0  0  0  0  0  0  0  0
   -2.0417    2.9346    0.2173 H   0  0  0  0  0  0  0  0  0  0  0  0
    1.1071    2.1287   -0.0775 H   0  0  0  0  0  0  0  0  0  0  0  0
    4.4869   -0.6091   -0.5122 H   0  0  0  0  0  0  0  0  0  0  0  0
    3.2626   -1.5614   -1.3992 H   0  0  0  0  0  0  0  0  0  0  0  0
    3.3876   -1.6880    0.3944 H   0  0  0  0  0  0  0  0  0  0  0  0
    1.1837   -2.2024   -0.3839 H   0  0  0  0  0  0  0  0  0  0  0  0
   -1.2713   -2.2873   -0.2035 H   0  0  0  0  0  0  0  0  0  0  0  0
  1  4  1  0  0  0  0
  1  2  1  0  0  0  0
  2  3  1  0  0  0  0
  5 12  1  0  0  0  0
  5  4  2  0  0  0  0
  6  5  1  0  0  0  0
  7  6  1  0  0  0  0
  8  7  1  0  0  0  0
  8 15  1  0  0  0  0
  9  6  2  0  0  0  0
  9 10  1  0  0  0  0
 10  1  2  0  0  0  0
 13  8  1  0  0  0  0
 14  8  1  0  0  0  0
 16  9  1  0  0  0  0
 17 10  1  0  0  0  0
M  RAD  4   2   2   3   3   4   2  11   2
M  END
