Coordinates from ORCA-job 4-MeOPhN2+_B3LYPG-6-31G_dp-d09-49-n800
 OpenBabel11261919463D

 17 16  0  0  0  0  0  0  0  0999 V2000
   -1.4749   -0.1154   -0.0371 C   0  0  0  0  0  0  0  0  0  0  0  0
   -2.8252   -0.1400    0.0646 N   0  0  0  0  0  0  0  0  0  0  0  0
   -3.9419   -0.1576    0.1489 N   0  0  0  0  0  0  0  0  0  0  0  0
   -0.7887    1.1125   -0.0043 C   0  0  0  0  0  0  0  0  0  0  0  0
    0.5601    1.1953   -0.1010 C   0  0  0  0  0  0  0  0  0  0  0  0
    1.2962   -0.0225   -0.2407 C   0  0  0  0  0  0  0  0  0  0  0  0
    2.6024    0.1229   -0.3282 O   0  0  0  0  0  0  0  0  0  0  0  0
    3.4768   -1.0195   -0.4703 C   0  0  0  0  0  0  0  0  0  0  0  0
    0.6202   -1.2742   -0.2765 C   0  0  0  0  0  0  0  0  0  0  0  0
   -0.7513   -1.3301   -0.1764 C   0  0  0  0  0  0  0  0  0  0  0  0
   -1.9493    2.8219    0.2020 H   0  0  0  0  0  0  0  0  0  0  0  0
    1.1012    2.1343   -0.0765 H   0  0  0  0  0  0  0  0  0  0  0  0
    4.4807   -0.6021   -0.5113 H   0  0  0  0  0  0  0  0  0  0  0  0
    3.2563   -1.5541   -1.3983 H   0  0  0  0  0  0  0  0  0  0  0  0
    3.3814   -1.6810    0.3951 H   0  0  0  0  0  0  0  0  0  0  0  0
    1.1780   -2.1957   -0.3829 H   0  0  0  0  0  0  0  0  0  0  0  0
   -1.2771   -2.2793   -0.2025 H   0  0  0  0  0  0  0  0  0  0  0  0
  1  4  1  0  0  0  0
  1  2  1  0  0  0  0
  2  3  1  0  0  0  0
  5 12  1  0  0  0  0
  5  4  2  0  0  0  0
  6  5  1  0  0  0  0
  7  6  1  0  0  0  0
  8  7  1  0  0  0  0
  8 15  1  0  0  0  0
  9  6  2  0  0  0  0
  9 10  1  0  0  0  0
 10  1  2  0  0  0  0
 13  8  1  0  0  0  0
 14  8  1  0  0  0  0
 16  9  1  0  0  0  0
 17 10  1  0  0  0  0
M  RAD  4   2   2   3   3   4   2  11   2
M  END
