Coordinates from ORCA-job 4-MeOPhN2+_B3LYPG-6-31G_dp-d09-49-n800
 OpenBabel11261919463D

 17 16  0  0  0  0  0  0  0  0999 V2000
   -1.4740   -0.1171   -0.0373 C   0  0  0  0  0  0  0  0  0  0  0  0
   -2.8243   -0.1413    0.0645 N   0  0  0  0  0  0  0  0  0  0  0  0
   -3.9410   -0.1585    0.1488 N   0  0  0  0  0  0  0  0  0  0  0  0
   -0.7869    1.1098   -0.0046 C   0  0  0  0  0  0  0  0  0  0  0  0
    0.5614    1.1941   -0.1012 C   0  0  0  0  0  0  0  0  0  0  0  0
    1.2976   -0.0240   -0.2410 C   0  0  0  0  0  0  0  0  0  0  0  0
    2.6037    0.1214   -0.3284 O   0  0  0  0  0  0  0  0  0  0  0  0
    3.4782   -1.0211   -0.4705 C   0  0  0  0  0  0  0  0  0  0  0  0
    0.6214   -1.2757   -0.2767 C   0  0  0  0  0  0  0  0  0  0  0  0
   -0.7501   -1.3317   -0.1766 C   0  0  0  0  0  0  0  0  0  0  0  0
   -1.9694    2.8465    0.2053 H   0  0  0  0  0  0  0  0  0  0  0  0
    1.1024    2.1331   -0.0767 H   0  0  0  0  0  0  0  0  0  0  0  0
    4.4820   -0.6036   -0.5115 H   0  0  0  0  0  0  0  0  0  0  0  0
    3.2577   -1.5557   -1.3985 H   0  0  0  0  0  0  0  0  0  0  0  0
    3.3828   -1.6825    0.3949 H   0  0  0  0  0  0  0  0  0  0  0  0
    1.1793   -2.1971   -0.3831 H   0  0  0  0  0  0  0  0  0  0  0  0
   -1.2758   -2.2811   -0.2027 H   0  0  0  0  0  0  0  0  0  0  0  0
  1  4  1  0  0  0  0
  1  2  1  0  0  0  0
  2  3  1  0  0  0  0
  5 12  1  0  0  0  0
  5  4  2  0  0  0  0
  6  5  1  0  0  0  0
  7  6  1  0  0  0  0
  8  7  1  0  0  0  0
  8 15  1  0  0  0  0
  9  6  2  0  0  0  0
  9 10  1  0  0  0  0
 10  1  2  0  0  0  0
 13  8  1  0  0  0  0
 14  8  1  0  0  0  0
 16  9  1  0  0  0  0
 17 10  1  0  0  0  0
M  RAD  4   2   2   3   3   4   2  11   2
M  END
