Coordinates from ORCA-job 4-MeOPhN2+_B3LYPG-6-31G_dp-d09-49-n800
 OpenBabel11261919463D

 17 16  0  0  0  0  0  0  0  0999 V2000
   -1.4351   -0.1745   -0.0442 C   0  0  0  0  0  0  0  0  0  0  0  0
   -2.7877   -0.2015    0.0575 N   0  0  0  0  0  0  0  0  0  0  0  0
   -3.9043   -0.2220    0.1415 N   0  0  0  0  0  0  0  0  0  0  0  0
   -0.7426    1.0431   -0.0126 C   0  0  0  0  0  0  0  0  0  0  0  0
    0.5988    1.1409   -0.1076 C   0  0  0  0  0  0  0  0  0  0  0  0
    1.3415   -0.0786   -0.2478 C   0  0  0  0  0  0  0  0  0  0  0  0
    2.6464    0.0676   -0.3351 O   0  0  0  0  0  0  0  0  0  0  0  0
    3.5235   -1.0739   -0.4777 C   0  0  0  0  0  0  0  0  0  0  0  0
    0.6638   -1.3309   -0.2836 C   0  0  0  0  0  0  0  0  0  0  0  0
   -0.7067   -1.3903   -0.1839 C   0  0  0  0  0  0  0  0  0  0  0  0
   -2.6479    3.7454    0.3188 H   0  0  0  0  0  0  0  0  0  0  0  0
    1.1450    2.0800   -0.0838 H   0  0  0  0  0  0  0  0  0  0  0  0
    4.5264   -0.6544   -0.5184 H   0  0  0  0  0  0  0  0  0  0  0  0
    3.3033   -1.6080   -1.4059 H   0  0  0  0  0  0  0  0  0  0  0  0
    3.4284   -1.7354    0.3877 H   0  0  0  0  0  0  0  0  0  0  0  0
    1.2239   -2.2512   -0.3901 H   0  0  0  0  0  0  0  0  0  0  0  0
   -1.2316   -2.3412   -0.2103 H   0  0  0  0  0  0  0  0  0  0  0  0
  1  4  1  0  0  0  0
  1  2  1  0  0  0  0
  2  3  1  0  0  0  0
  5 12  1  0  0  0  0
  5  4  2  0  0  0  0
  6  5  1  0  0  0  0
  7  6  1  0  0  0  0
  8  7  1  0  0  0  0
  8 15  1  0  0  0  0
  9  6  2  0  0  0  0
  9 10  1  0  0  0  0
 10  1  2  0  0  0  0
 13  8  1  0  0  0  0
 14  8  1  0  0  0  0
 16  9  1  0  0  0  0
 17 10  1  0  0  0  0
M  RAD  4   2   2   3   3   4   2  11   2
M  END
