Coordinates from ORCA-job 4-MeOPhN2+_B3LYPG-6-31G_dp-d09-49-n800
 OpenBabel11261919463D

 17 17  0  0  0  0  0  0  0  0999 V2000
   -1.4957   -0.0530   -0.0311 C   0  0  0  0  0  0  0  0  0  0  0  0
   -2.8491   -0.0964    0.0692 N   0  0  0  0  0  0  0  0  0  0  0  0
   -3.9665   -0.1274    0.1522 N   0  0  0  0  0  0  0  0  0  0  0  0
   -0.8472    1.2121    0.0071 C   0  0  0  0  0  0  0  0  0  0  0  0
    0.5201    1.2304   -0.0955 C   0  0  0  0  0  0  0  0  0  0  0  0
    1.2578    0.0220   -0.2347 C   0  0  0  0  0  0  0  0  0  0  0  0
    2.5657    0.1693   -0.3222 O   0  0  0  0  0  0  0  0  0  0  0  0
    3.4378   -0.9731   -0.4643 C   0  0  0  0  0  0  0  0  0  0  0  0
    0.5849   -1.2276   -0.2705 C   0  0  0  0  0  0  0  0  0  0  0  0
   -0.7876   -1.2708   -0.1694 C   0  0  0  0  0  0  0  0  0  0  0  0
   -1.3627    2.0341    0.1039 H   0  0  0  0  0  0  0  0  0  0  0  0
    1.0685    2.1656   -0.0719 H   0  0  0  0  0  0  0  0  0  0  0  0
    4.4427   -0.5582   -0.5058 H   0  0  0  0  0  0  0  0  0  0  0  0
    3.2170   -1.5087   -1.3919 H   0  0  0  0  0  0  0  0  0  0  0  0
    3.3424   -1.6353    0.4009 H   0  0  0  0  0  0  0  0  0  0  0  0
    1.1374   -2.1525   -0.3767 H   0  0  0  0  0  0  0  0  0  0  0  0
   -1.3205   -2.2152   -0.1947 H   0  0  0  0  0  0  0  0  0  0  0  0
  1  4  1  0  0  0  0
  1  2  1  0  0  0  0
  2  3  1  0  0  0  0
  4 11  1  0  0  0  0
  5 12  1  0  0  0  0
  5  4  2  0  0  0  0
  6  5  1  0  0  0  0
  7  6  1  0  0  0  0
  8  7  1  0  0  0  0
  8 15  1  0  0  0  0
  9  6  2  0  0  0  0
  9 10  1  0  0  0  0
 10  1  2  0  0  0  0
 13  8  1  0  0  0  0
 14  8  1  0  0  0  0
 16  9  1  0  0  0  0
 17 10  1  0  0  0  0
M  RAD  2   2   2   3   3
M  END
