Coordinates from ORCA-job 4-MeOPhN2+_B3LYPG-6-31G_dp-d09-49-n800
 OpenBabel11261919463D

 17 16  0  0  0  0  0  0  0  0999 V2000
   -1.4840   -0.0927   -0.0349 C   0  0  0  0  0  0  0  0  0  0  0  0
   -2.8349   -0.1253    0.0662 N   0  0  0  0  0  0  0  0  0  0  0  0
   -3.9520   -0.1488    0.1501 N   0  0  0  0  0  0  0  0  0  0  0  0
   -0.8125    1.1497    0.0000 C   0  0  0  0  0  0  0  0  0  0  0  0
    0.5441    1.2097   -0.0986 C   0  0  0  0  0  0  0  0  0  0  0  0
    1.2798   -0.0044   -0.2380 C   0  0  0  0  0  0  0  0  0  0  0  0
    2.5869    0.1417   -0.3254 O   0  0  0  0  0  0  0  0  0  0  0  0
    3.4602   -1.0007   -0.4679 C   0  0  0  0  0  0  0  0  0  0  0  0
    0.6061   -1.2560   -0.2740 C   0  0  0  0  0  0  0  0  0  0  0  0
   -0.7656   -1.3081   -0.1737 C   0  0  0  0  0  0  0  0  0  0  0  0
   -1.7088    2.5205    0.1629 H   0  0  0  0  0  0  0  0  0  0  0  0
    1.0873    2.1469   -0.0746 H   0  0  0  0  0  0  0  0  0  0  0  0
    4.4645   -0.5844   -0.5091 H   0  0  0  0  0  0  0  0  0  0  0  0
    3.2396   -1.5355   -1.3959 H   0  0  0  0  0  0  0  0  0  0  0  0
    3.3650   -1.6628    0.3972 H   0  0  0  0  0  0  0  0  0  0  0  0
    1.1626   -2.1784   -0.3803 H   0  0  0  0  0  0  0  0  0  0  0  0
   -1.2933   -2.2559   -0.1996 H   0  0  0  0  0  0  0  0  0  0  0  0
  1  4  1  0  0  0  0
  1  2  1  0  0  0  0
  2  3  1  0  0  0  0
  5 12  1  0  0  0  0
  5  4  2  0  0  0  0
  6  5  1  0  0  0  0
  7  6  1  0  0  0  0
  8  7  1  0  0  0  0
  8 15  1  0  0  0  0
  9  6  2  0  0  0  0
  9 10  1  0  0  0  0
 10  1  2  0  0  0  0
 13  8  1  0  0  0  0
 14  8  1  0  0  0  0
 16  9  1  0  0  0  0
 17 10  1  0  0  0  0
M  RAD  4   2   2   3   3   4   2  11   2
M  END
