Coordinates from ORCA-job 4-MeOPhN2+_B3LYPG-6-31G_dp-d09-49-n800
 OpenBabel11261919463D

 17 16  0  0  0  0  0  0  0  0999 V2000
   -1.4663   -0.1298   -0.0388 C   0  0  0  0  0  0  0  0  0  0  0  0
   -2.8168   -0.1515    0.0631 N   0  0  0  0  0  0  0  0  0  0  0  0
   -3.9333   -0.1667    0.1476 N   0  0  0  0  0  0  0  0  0  0  0  0
   -0.7734    1.0911   -0.0071 C   0  0  0  0  0  0  0  0  0  0  0  0
    0.5715    1.1836   -0.1029 C   0  0  0  0  0  0  0  0  0  0  0  0
    1.3085   -0.0361   -0.2428 C   0  0  0  0  0  0  0  0  0  0  0  0
    2.6141    0.1089   -0.3302 O   0  0  0  0  0  0  0  0  0  0  0  0
    3.4891   -1.0338   -0.4721 C   0  0  0  0  0  0  0  0  0  0  0  0
    0.6309   -1.2875   -0.2783 C   0  0  0  0  0  0  0  0  0  0  0  0
   -0.7404   -1.3446   -0.1782 C   0  0  0  0  0  0  0  0  0  0  0  0
   -2.1293    3.0409    0.2314 H   0  0  0  0  0  0  0  0  0  0  0  0
    1.1129    2.1231   -0.0785 H   0  0  0  0  0  0  0  0  0  0  0  0
    4.4927   -0.6159   -0.5131 H   0  0  0  0  0  0  0  0  0  0  0  0
    3.2685   -1.5682   -1.4001 H   0  0  0  0  0  0  0  0  0  0  0  0
    3.3934   -1.6948    0.3935 H   0  0  0  0  0  0  0  0  0  0  0  0
    1.1890   -2.2088   -0.3847 H   0  0  0  0  0  0  0  0  0  0  0  0
   -1.2659   -2.2945   -0.2044 H   0  0  0  0  0  0  0  0  0  0  0  0
  1  4  1  0  0  0  0
  1  2  1  0  0  0  0
  2  3  1  0  0  0  0
  5 12  1  0  0  0  0
  5  4  2  0  0  0  0
  6  5  1  0  0  0  0
  7  6  1  0  0  0  0
  8  7  1  0  0  0  0
  8 15  1  0  0  0  0
  9  6  2  0  0  0  0
  9 10  1  0  0  0  0
 10  1  2  0  0  0  0
 13  8  1  0  0  0  0
 14  8  1  0  0  0  0
 16  9  1  0  0  0  0
 17 10  1  0  0  0  0
M  RAD  4   2   2   3   3   4   2  11   2
M  END
