Coordinates from ORCA-job 4-MeOPhN2+_B3LYPG-6-31G_dp-d09-49-n800
 OpenBabel11261919463D

 17 16  0  0  0  0  0  0  0  0999 V2000
   -1.4633   -0.1340   -0.0393 C   0  0  0  0  0  0  0  0  0  0  0  0
   -2.8140   -0.1553    0.0626 N   0  0  0  0  0  0  0  0  0  0  0  0
   -3.9305   -0.1702    0.1471 N   0  0  0  0  0  0  0  0  0  0  0  0
   -0.7691    1.0855   -0.0079 C   0  0  0  0  0  0  0  0  0  0  0  0
    0.5749    1.1798   -0.1034 C   0  0  0  0  0  0  0  0  0  0  0  0
    1.3123   -0.0403   -0.2433 C   0  0  0  0  0  0  0  0  0  0  0  0
    2.6177    0.1045   -0.3308 O   0  0  0  0  0  0  0  0  0  0  0  0
    3.4928   -1.0383   -0.4727 C   0  0  0  0  0  0  0  0  0  0  0  0
    0.6342   -1.2916   -0.2788 C   0  0  0  0  0  0  0  0  0  0  0  0
   -0.7371   -1.3489   -0.1788 C   0  0  0  0  0  0  0  0  0  0  0  0
   -2.1852    3.1086    0.2404 H   0  0  0  0  0  0  0  0  0  0  0  0
    1.1167    2.1193   -0.0791 H   0  0  0  0  0  0  0  0  0  0  0  0
    4.4964   -0.6203   -0.5137 H   0  0  0  0  0  0  0  0  0  0  0  0
    3.2721   -1.5726   -1.4008 H   0  0  0  0  0  0  0  0  0  0  0  0
    3.3970   -1.6992    0.3930 H   0  0  0  0  0  0  0  0  0  0  0  0
    1.1924   -2.2129   -0.3852 H   0  0  0  0  0  0  0  0  0  0  0  0
   -1.2626   -2.2989   -0.2050 H   0  0  0  0  0  0  0  0  0  0  0  0
  1  4  1  0  0  0  0
  1  2  1  0  0  0  0
  2  3  1  0  0  0  0
  5 12  1  0  0  0  0
  5  4  2  0  0  0  0
  6  5  1  0  0  0  0
  7  6  1  0  0  0  0
  8  7  1  0  0  0  0
  8 15  1  0  0  0  0
  9  6  2  0  0  0  0
  9 10  1  0  0  0  0
 10  1  2  0  0  0  0
 13  8  1  0  0  0  0
 14  8  1  0  0  0  0
 16  9  1  0  0  0  0
 17 10  1  0  0  0  0
M  RAD  4   2   2   3   3   4   2  11   2
M  END
