Coordinates from ORCA-job 4-MeOPhN2+_B3LYPG-6-31G_dp-d09-49-n800
 OpenBabel11261919463D

 17 16  0  0  0  0  0  0  0  0999 V2000
   -1.4783   -0.1081   -0.0364 C   0  0  0  0  0  0  0  0  0  0  0  0
   -2.8287   -0.1350    0.0652 N   0  0  0  0  0  0  0  0  0  0  0  0
   -3.9455   -0.1543    0.1494 N   0  0  0  0  0  0  0  0  0  0  0  0
   -0.7965    1.1241   -0.0029 C   0  0  0  0  0  0  0  0  0  0  0  0
    0.5547    1.2004   -0.1002 C   0  0  0  0  0  0  0  0  0  0  0  0
    1.2905   -0.0163   -0.2398 C   0  0  0  0  0  0  0  0  0  0  0  0
    2.5970    0.1294   -0.3272 O   0  0  0  0  0  0  0  0  0  0  0  0
    3.4711   -1.0131   -0.4695 C   0  0  0  0  0  0  0  0  0  0  0  0
    0.6154   -1.2680   -0.2757 C   0  0  0  0  0  0  0  0  0  0  0  0
   -0.7562   -1.3229   -0.1755 C   0  0  0  0  0  0  0  0  0  0  0  0
   -1.8668    2.7202    0.1886 H   0  0  0  0  0  0  0  0  0  0  0  0
    1.0962    2.1389   -0.0758 H   0  0  0  0  0  0  0  0  0  0  0  0
    4.4751   -0.5960   -0.5105 H   0  0  0  0  0  0  0  0  0  0  0  0
    3.2506   -1.5477   -1.3975 H   0  0  0  0  0  0  0  0  0  0  0  0
    3.3757   -1.6747    0.3958 H   0  0  0  0  0  0  0  0  0  0  0  0
    1.1729   -2.1897   -0.3821 H   0  0  0  0  0  0  0  0  0  0  0  0
   -1.2824   -2.2718   -0.2016 H   0  0  0  0  0  0  0  0  0  0  0  0
  1  4  1  0  0  0  0
  1  2  1  0  0  0  0
  2  3  1  0  0  0  0
  5 12  1  0  0  0  0
  5  4  2  0  0  0  0
  6  5  1  0  0  0  0
  7  6  1  0  0  0  0
  8  7  1  0  0  0  0
  8 15  1  0  0  0  0
  9  6  2  0  0  0  0
  9 10  1  0  0  0  0
 10  1  2  0  0  0  0
 13  8  1  0  0  0  0
 14  8  1  0  0  0  0
 16  9  1  0  0  0  0
 17 10  1  0  0  0  0
M  RAD  4   2   2   3   3   4   2  11   2
M  END
