Coordinates from ORCA-job 4-MeOPhN2+_B3LYPG-6-31G_dp-d09-49-n800
 OpenBabel11261919463D

 17 16  0  0  0  0  0  0  0  0999 V2000
   -1.4638   -0.1333   -0.0393 C   0  0  0  0  0  0  0  0  0  0  0  0
   -2.8144   -0.1547    0.0627 N   0  0  0  0  0  0  0  0  0  0  0  0
   -3.9309   -0.1696    0.1472 N   0  0  0  0  0  0  0  0  0  0  0  0
   -0.7698    1.0863   -0.0078 C   0  0  0  0  0  0  0  0  0  0  0  0
    0.5744    1.1804   -0.1033 C   0  0  0  0  0  0  0  0  0  0  0  0
    1.3117   -0.0396   -0.2432 C   0  0  0  0  0  0  0  0  0  0  0  0
    2.6172    0.1052   -0.3307 O   0  0  0  0  0  0  0  0  0  0  0  0
    3.4922   -1.0376   -0.4726 C   0  0  0  0  0  0  0  0  0  0  0  0
    0.6337   -1.2910   -0.2787 C   0  0  0  0  0  0  0  0  0  0  0  0
   -0.7376   -1.3483   -0.1787 C   0  0  0  0  0  0  0  0  0  0  0  0
   -2.1764    3.0979    0.2390 H   0  0  0  0  0  0  0  0  0  0  0  0
    1.1161    2.1199   -0.0790 H   0  0  0  0  0  0  0  0  0  0  0  0
    4.4958   -0.6196   -0.5136 H   0  0  0  0  0  0  0  0  0  0  0  0
    3.2715   -1.5719   -1.4007 H   0  0  0  0  0  0  0  0  0  0  0  0
    3.3965   -1.6985    0.3930 H   0  0  0  0  0  0  0  0  0  0  0  0
    1.1919   -2.2123   -0.3851 H   0  0  0  0  0  0  0  0  0  0  0  0
   -1.2631   -2.2982   -0.2049 H   0  0  0  0  0  0  0  0  0  0  0  0
  1  4  1  0  0  0  0
  1  2  1  0  0  0  0
  2  3  1  0  0  0  0
  5 12  1  0  0  0  0
  5  4  2  0  0  0  0
  6  5  1  0  0  0  0
  7  6  1  0  0  0  0
  8  7  1  0  0  0  0
  8 15  1  0  0  0  0
  9  6  2  0  0  0  0
  9 10  1  0  0  0  0
 10  1  2  0  0  0  0
 13  8  1  0  0  0  0
 14  8  1  0  0  0  0
 16  9  1  0  0  0  0
 17 10  1  0  0  0  0
M  RAD  4   2   2   3   3   4   2  11   2
M  END
