Coordinates from ORCA-job 4-MeOPhN2+_B3LYPG-6-31G_dp-d09-49-n800
 OpenBabel11261919463D

 17 16  0  0  0  0  0  0  0  0999 V2000
   -1.4758   -0.1136   -0.0369 C   0  0  0  0  0  0  0  0  0  0  0  0
   -2.8261   -0.1388    0.0648 N   0  0  0  0  0  0  0  0  0  0  0  0
   -3.9428   -0.1568    0.1491 N   0  0  0  0  0  0  0  0  0  0  0  0
   -0.7905    1.1152   -0.0040 C   0  0  0  0  0  0  0  0  0  0  0  0
    0.5588    1.1966   -0.1008 C   0  0  0  0  0  0  0  0  0  0  0  0
    1.2948   -0.0210   -0.2405 C   0  0  0  0  0  0  0  0  0  0  0  0
    2.6011    0.1245   -0.3279 O   0  0  0  0  0  0  0  0  0  0  0  0
    3.4754   -1.0180   -0.4701 C   0  0  0  0  0  0  0  0  0  0  0  0
    0.6191   -1.2727   -0.2763 C   0  0  0  0  0  0  0  0  0  0  0  0
   -0.7525   -1.3284   -0.1762 C   0  0  0  0  0  0  0  0  0  0  0  0
   -1.9292    2.7973    0.1987 H   0  0  0  0  0  0  0  0  0  0  0  0
    1.0999    2.1354   -0.0763 H   0  0  0  0  0  0  0  0  0  0  0  0
    4.4793   -0.6006   -0.5111 H   0  0  0  0  0  0  0  0  0  0  0  0
    3.2550   -1.5525   -1.3981 H   0  0  0  0  0  0  0  0  0  0  0  0
    3.3800   -1.6795    0.3953 H   0  0  0  0  0  0  0  0  0  0  0  0
    1.1768   -2.1942   -0.3827 H   0  0  0  0  0  0  0  0  0  0  0  0
   -1.2784   -2.2775   -0.2023 H   0  0  0  0  0  0  0  0  0  0  0  0
  1  4  1  0  0  0  0
  1  2  1  0  0  0  0
  2  3  1  0  0  0  0
  5 12  1  0  0  0  0
  5  4  2  0  0  0  0
  6  5  1  0  0  0  0
  7  6  1  0  0  0  0
  8  7  1  0  0  0  0
  8 15  1  0  0  0  0
  9  6  2  0  0  0  0
  9 10  1  0  0  0  0
 10  1  2  0  0  0  0
 13  8  1  0  0  0  0
 14  8  1  0  0  0  0
 16  9  1  0  0  0  0
 17 10  1  0  0  0  0
M  RAD  4   2   2   3   3   4   2  11   2
M  END
