Coordinates from ORCA-job 4-MeOPhN2+_B3LYPG-6-31G_dp-d09-49-n800
 OpenBabel11261919463D

 17 16  0  0  0  0  0  0  0  0999 V2000
   -1.4604   -0.1379   -0.0399 C   0  0  0  0  0  0  0  0  0  0  0  0
   -2.8112   -0.1590    0.0621 N   0  0  0  0  0  0  0  0  0  0  0  0
   -3.9277   -0.1737    0.1466 N   0  0  0  0  0  0  0  0  0  0  0  0
   -0.7652    1.0804   -0.0086 C   0  0  0  0  0  0  0  0  0  0  0  0
    0.5781    1.1761   -0.1040 C   0  0  0  0  0  0  0  0  0  0  0  0
    1.3158   -0.0443   -0.2439 C   0  0  0  0  0  0  0  0  0  0  0  0
    2.6212    0.1004   -0.3313 O   0  0  0  0  0  0  0  0  0  0  0  0
    3.4963   -1.0425   -0.4733 C   0  0  0  0  0  0  0  0  0  0  0  0
    0.6374   -1.2956   -0.2793 C   0  0  0  0  0  0  0  0  0  0  0  0
   -0.7338   -1.3530   -0.1793 C   0  0  0  0  0  0  0  0  0  0  0  0
   -2.2381    3.1732    0.2491 H   0  0  0  0  0  0  0  0  0  0  0  0
    1.1204    2.1156   -0.0797 H   0  0  0  0  0  0  0  0  0  0  0  0
    4.4999   -0.6245   -0.5142 H   0  0  0  0  0  0  0  0  0  0  0  0
    3.2755   -1.5768   -1.4013 H   0  0  0  0  0  0  0  0  0  0  0  0
    3.4005   -1.7034    0.3924 H   0  0  0  0  0  0  0  0  0  0  0  0
    1.1956   -2.2169   -0.3857 H   0  0  0  0  0  0  0  0  0  0  0  0
   -1.2594   -2.3030   -0.2055 H   0  0  0  0  0  0  0  0  0  0  0  0
  1  4  1  0  0  0  0
  1  2  1  0  0  0  0
  2  3  1  0  0  0  0
  5 12  1  0  0  0  0
  5  4  2  0  0  0  0
  6  5  1  0  0  0  0
  7  6  1  0  0  0  0
  8  7  1  0  0  0  0
  8 15  1  0  0  0  0
  9  6  2  0  0  0  0
  9 10  1  0  0  0  0
 10  1  2  0  0  0  0
 13  8  1  0  0  0  0
 14  8  1  0  0  0  0
 16  9  1  0  0  0  0
 17 10  1  0  0  0  0
M  RAD  4   2   2   3   3   4   2  11   2
M  END
