Coordinates from ORCA-job 4-MeOPhN2+_B3LYPG-6-31G_dp-d09-49-n800
 OpenBabel11261919463D

 17 16  0  0  0  0  0  0  0  0999 V2000
   -1.4464   -0.1558   -0.0423 C   0  0  0  0  0  0  0  0  0  0  0  0
   -2.7981   -0.1784    0.0597 N   0  0  0  0  0  0  0  0  0  0  0  0
   -3.9146   -0.1949    0.1440 N   0  0  0  0  0  0  0  0  0  0  0  0
   -0.7502    1.0604   -0.0113 C   0  0  0  0  0  0  0  0  0  0  0  0
    0.5913    1.1583   -0.1063 C   0  0  0  0  0  0  0  0  0  0  0  0
    1.3310   -0.0626   -0.2462 C   0  0  0  0  0  0  0  0  0  0  0  0
    2.6360    0.0819   -0.3336 O   0  0  0  0  0  0  0  0  0  0  0  0
    3.5116   -1.0609   -0.4757 C   0  0  0  0  0  0  0  0  0  0  0  0
    0.6517   -1.3139   -0.2815 C   0  0  0  0  0  0  0  0  0  0  0  0
   -0.7191   -1.3717   -0.1816 C   0  0  0  0  0  0  0  0  0  0  0  0
   -2.4713    3.4717    0.2879 H   0  0  0  0  0  0  0  0  0  0  0  0
    1.1363    2.0973   -0.0825 H   0  0  0  0  0  0  0  0  0  0  0  0
    4.5151   -0.6425   -0.5166 H   0  0  0  0  0  0  0  0  0  0  0  0
    3.2908   -1.5950   -1.4038 H   0  0  0  0  0  0  0  0  0  0  0  0
    3.4158   -1.7217    0.3900 H   0  0  0  0  0  0  0  0  0  0  0  0
    1.2103   -2.2350   -0.3878 H   0  0  0  0  0  0  0  0  0  0  0  0
   -1.2449   -2.3219   -0.2078 H   0  0  0  0  0  0  0  0  0  0  0  0
  1  4  1  0  0  0  0
  1  2  1  0  0  0  0
  2  3  1  0  0  0  0
  5 12  1  0  0  0  0
  5  4  2  0  0  0  0
  6  5  1  0  0  0  0
  7  6  1  0  0  0  0
  8  7  1  0  0  0  0
  8 15  1  0  0  0  0
  9  6  2  0  0  0  0
  9 10  1  0  0  0  0
 10  1  2  0  0  0  0
 13  8  1  0  0  0  0
 14  8  1  0  0  0  0
 16  9  1  0  0  0  0
 17 10  1  0  0  0  0
M  RAD  4   2   2   3   3   4   2  11   2
M  END
