Coordinates from ORCA-job 4-MeOPhN2+_B3LYPG-6-31G_dp-d09-49-n800
 OpenBabel11261919463D

 17 17  0  0  0  0  0  0  0  0999 V2000
   -1.4884   -0.0781   -0.0336 C   0  0  0  0  0  0  0  0  0  0  0  0
   -2.8401   -0.1162    0.0669 N   0  0  0  0  0  0  0  0  0  0  0  0
   -3.9573   -0.1436    0.1501 N   0  0  0  0  0  0  0  0  0  0  0  0
   -0.8267    1.1742    0.0028 C   0  0  0  0  0  0  0  0  0  0  0  0
    0.5349    1.2172   -0.0970 C   0  0  0  0  0  0  0  0  0  0  0  0
    1.2710    0.0055   -0.2361 C   0  0  0  0  0  0  0  0  0  0  0  0
    2.5786    0.1520   -0.3236 O   0  0  0  0  0  0  0  0  0  0  0  0
    3.4513   -0.9902   -0.4668 C   0  0  0  0  0  0  0  0  0  0  0  0
    0.5982   -1.2457   -0.2722 C   0  0  0  0  0  0  0  0  0  0  0  0
   -0.7738   -1.2944   -0.1718 C   0  0  0  0  0  0  0  0  0  0  0  0
   -1.5758    2.3437    0.1403 H   0  0  0  0  0  0  0  0  0  0  0  0
    1.0805    2.1531   -0.0734 H   0  0  0  0  0  0  0  0  0  0  0  0
    4.4559   -0.5745   -0.5083 H   0  0  0  0  0  0  0  0  0  0  0  0
    3.2303   -1.5249   -1.3948 H   0  0  0  0  0  0  0  0  0  0  0  0
    3.3564   -1.6528    0.3980 H   0  0  0  0  0  0  0  0  0  0  0  0
    1.1533   -2.1689   -0.3783 H   0  0  0  0  0  0  0  0  0  0  0  0
   -1.3033   -2.2409   -0.1975 H   0  0  0  0  0  0  0  0  0  0  0  0
  1  4  1  0  0  0  0
  1  2  1  0  0  0  0
  2  3  1  0  0  0  0
  4 11  1  0  0  0  0
  5 12  1  0  0  0  0
  5  4  2  0  0  0  0
  6  5  1  0  0  0  0
  7  6  1  0  0  0  0
  8  7  1  0  0  0  0
  8 15  1  0  0  0  0
  9  6  2  0  0  0  0
  9 10  1  0  0  0  0
 10  1  2  0  0  0  0
 13  8  1  0  0  0  0
 14  8  1  0  0  0  0
 16  9  1  0  0  0  0
 17 10  1  0  0  0  0
M  RAD  2   2   2   3   3
M  END
