Coordinates from ORCA-job 4-MeOPhN2+_B3LYPG-6-31G_dp-d09-49-n800
 OpenBabel11261919463D

 17 16  0  0  0  0  0  0  0  0999 V2000
   -1.4600   -0.1383   -0.0399 C   0  0  0  0  0  0  0  0  0  0  0  0
   -2.8109   -0.1594    0.0621 N   0  0  0  0  0  0  0  0  0  0  0  0
   -3.9274   -0.1741    0.1466 N   0  0  0  0  0  0  0  0  0  0  0  0
   -0.7648    1.0799   -0.0087 C   0  0  0  0  0  0  0  0  0  0  0  0
    0.5785    1.1757   -0.1040 C   0  0  0  0  0  0  0  0  0  0  0  0
    1.3162   -0.0448   -0.2439 C   0  0  0  0  0  0  0  0  0  0  0  0
    2.6216    0.0999   -0.3314 O   0  0  0  0  0  0  0  0  0  0  0  0
    3.4967   -1.0430   -0.4733 C   0  0  0  0  0  0  0  0  0  0  0  0
    0.6377   -1.2960   -0.2794 C   0  0  0  0  0  0  0  0  0  0  0  0
   -0.7335   -1.3534   -0.1793 C   0  0  0  0  0  0  0  0  0  0  0  0
   -2.2440    3.1804    0.2501 H   0  0  0  0  0  0  0  0  0  0  0  0
    1.1208    2.1152   -0.0798 H   0  0  0  0  0  0  0  0  0  0  0  0
    4.5003   -0.6250   -0.5143 H   0  0  0  0  0  0  0  0  0  0  0  0
    3.2759   -1.5772   -1.4014 H   0  0  0  0  0  0  0  0  0  0  0  0
    3.4009   -1.7038    0.3924 H   0  0  0  0  0  0  0  0  0  0  0  0
    1.1960   -2.2173   -0.3857 H   0  0  0  0  0  0  0  0  0  0  0  0
   -1.2590   -2.3034   -0.2055 H   0  0  0  0  0  0  0  0  0  0  0  0
  1  4  1  0  0  0  0
  1  2  1  0  0  0  0
  2  3  1  0  0  0  0
  5 12  1  0  0  0  0
  5  4  2  0  0  0  0
  6  5  1  0  0  0  0
  7  6  1  0  0  0  0
  8  7  1  0  0  0  0
  8 15  1  0  0  0  0
  9  6  2  0  0  0  0
  9 10  1  0  0  0  0
 10  1  2  0  0  0  0
 13  8  1  0  0  0  0
 14  8  1  0  0  0  0
 16  9  1  0  0  0  0
 17 10  1  0  0  0  0
M  RAD  4   2   2   3   3   4   2  11   2
M  END
