Coordinates from ORCA-job 4-MeOPhN2+_B3LYPG-6-31G_dp-d09-49-n800
 OpenBabel11261919463D

 17 16  0  0  0  0  0  0  0  0999 V2000
   -1.4441   -0.1596   -0.0427 C   0  0  0  0  0  0  0  0  0  0  0  0
   -2.7959   -0.1830    0.0592 N   0  0  0  0  0  0  0  0  0  0  0  0
   -3.9125   -0.2004    0.1435 N   0  0  0  0  0  0  0  0  0  0  0  0
   -0.7482    1.0565   -0.0117 C   0  0  0  0  0  0  0  0  0  0  0  0
    0.5932    1.1547   -0.1067 C   0  0  0  0  0  0  0  0  0  0  0  0
    1.3334   -0.0660   -0.2466 C   0  0  0  0  0  0  0  0  0  0  0  0
    2.6384    0.0787   -0.3340 O   0  0  0  0  0  0  0  0  0  0  0  0
    3.5143   -1.0639   -0.4761 C   0  0  0  0  0  0  0  0  0  0  0  0
    0.6543   -1.3174   -0.2820 C   0  0  0  0  0  0  0  0  0  0  0  0
   -0.7164   -1.3756   -0.1821 C   0  0  0  0  0  0  0  0  0  0  0  0
   -2.5106    3.5301    0.2948 H   0  0  0  0  0  0  0  0  0  0  0  0
    1.1383    2.0939   -0.0829 H   0  0  0  0  0  0  0  0  0  0  0  0
    4.5177   -0.6454   -0.5170 H   0  0  0  0  0  0  0  0  0  0  0  0
    3.2935   -1.5980   -1.4042 H   0  0  0  0  0  0  0  0  0  0  0  0
    3.4185   -1.7248    0.3896 H   0  0  0  0  0  0  0  0  0  0  0  0
    1.2132   -2.2384   -0.3882 H   0  0  0  0  0  0  0  0  0  0  0  0
   -1.2420   -2.3260   -0.2083 H   0  0  0  0  0  0  0  0  0  0  0  0
  1  4  1  0  0  0  0
  1  2  1  0  0  0  0
  2  3  1  0  0  0  0
  5 12  1  0  0  0  0
  5  4  2  0  0  0  0
  6  5  1  0  0  0  0
  7  6  1  0  0  0  0
  8  7  1  0  0  0  0
  8 15  1  0  0  0  0
  9  6  2  0  0  0  0
  9 10  1  0  0  0  0
 10  1  2  0  0  0  0
 13  8  1  0  0  0  0
 14  8  1  0  0  0  0
 16  9  1  0  0  0  0
 17 10  1  0  0  0  0
M  RAD  4   2   2   3   3   4   2  11   2
M  END
