Coordinates from ORCA-job 4-MeOPhN2+_B3LYPG-6-31G_dp-d09-49-n800
 OpenBabel11261919463D

 17 16  0  0  0  0  0  0  0  0999 V2000
   -1.4245   -0.3224   -0.0546 C   0  0  0  0  0  0  0  0  0  0  0  0
   -2.7782   -0.3975    0.0438 N   0  0  0  0  0  0  0  0  0  0  0  0
   -3.8939   -0.4553    0.1251 N   0  0  0  0  0  0  0  0  0  0  0  0
   -0.7819    0.9218   -0.0166 C   0  0  0  0  0  0  0  0  0  0  0  0
    0.5589    1.0522   -0.1093 C   0  0  0  0  0  0  0  0  0  0  0  0
    1.3421   -0.1406   -0.2515 C   0  0  0  0  0  0  0  0  0  0  0  0
    2.6436    0.0463   -0.3357 O   0  0  0  0  0  0  0  0  0  0  0  0
    3.5539   -1.0674   -0.4801 C   0  0  0  0  0  0  0  0  0  0  0  0
    0.7060   -1.4145   -0.2925 C   0  0  0  0  0  0  0  0  0  0  0  0
   -0.6617   -1.5173   -0.1960 C   0  0  0  0  0  0  0  0  0  0  0  0
   -2.9142    5.0640    0.4259 H   0  0  0  0  0  0  0  0  0  0  0  0
    1.0820    2.0056   -0.0823 H   0  0  0  0  0  0  0  0  0  0  0  0
    4.5444   -0.6189   -0.5177 H   0  0  0  0  0  0  0  0  0  0  0  0
    3.3520   -1.6057   -1.4102 H   0  0  0  0  0  0  0  0  0  0  0  0
    3.4778   -1.7350    0.3826 H   0  0  0  0  0  0  0  0  0  0  0  0
    1.2959   -2.3158   -0.4000 H   0  0  0  0  0  0  0  0  0  0  0  0
   -1.1572   -2.4841   -0.2262 H   0  0  0  0  0  0  0  0  0  0  0  0
  1  4  1  0  0  0  0
  1  2  1  0  0  0  0
  2  3  1  0  0  0  0
  5 12  1  0  0  0  0
  5  4  2  0  0  0  0
  6  5  1  0  0  0  0
  7  6  1  0  0  0  0
  8  7  1  0  0  0  0
  8 15  1  0  0  0  0
  9  6  2  0  0  0  0
  9 10  1  0  0  0  0
 10  1  2  0  0  0  0
 13  8  1  0  0  0  0
 14  8  1  0  0  0  0
 16  9  1  0  0  0  0
 17 10  1  0  0  0  0
M  RAD  4   2   2   3   3   4   2  11   2
M  END
