Coordinates from ORCA-job 4-MeOPhN2+_B3LYPG-6-31G_dp-d09-49-n800
 OpenBabel11261919463D

 17 16  0  0  0  0  0  0  0  0999 V2000
   -1.4243   -0.2081   -0.0470 C   0  0  0  0  0  0  0  0  0  0  0  0
   -2.7778   -0.2450    0.0542 N   0  0  0  0  0  0  0  0  0  0  0  0
   -3.8944   -0.2740    0.1379 N   0  0  0  0  0  0  0  0  0  0  0  0
   -0.7419    1.0149   -0.0138 C   0  0  0  0  0  0  0  0  0  0  0  0
    0.5998    1.1156   -0.1086 C   0  0  0  0  0  0  0  0  0  0  0  0
    1.3498   -0.0993   -0.2495 C   0  0  0  0  0  0  0  0  0  0  0  0
    2.6545    0.0532   -0.3363 O   0  0  0  0  0  0  0  0  0  0  0  0
    3.5365   -1.0840   -0.4796 C   0  0  0  0  0  0  0  0  0  0  0  0
    0.6788   -1.3553   -0.2866 C   0  0  0  0  0  0  0  0  0  0  0  0
   -0.6911   -1.4213   -0.1873 C   0  0  0  0  0  0  0  0  0  0  0  0
   -2.8227    4.1351    0.3565 H   0  0  0  0  0  0  0  0  0  0  0  0
    1.1444    2.0563   -0.0843 H   0  0  0  0  0  0  0  0  0  0  0  0
    4.5378   -0.6602   -0.5197 H   0  0  0  0  0  0  0  0  0  0  0  0
    3.3192   -1.6185   -1.4083 H   0  0  0  0  0  0  0  0  0  0  0  0
    3.4444   -1.7468    0.3851 H   0  0  0  0  0  0  0  0  0  0  0  0
    1.2438   -2.2725   -0.3935 H   0  0  0  0  0  0  0  0  0  0  0  0
   -1.2118   -2.3748   -0.2146 H   0  0  0  0  0  0  0  0  0  0  0  0
  1  4  1  0  0  0  0
  1  2  1  0  0  0  0
  2  3  1  0  0  0  0
  5 12  1  0  0  0  0
  5  4  2  0  0  0  0
  6  5  1  0  0  0  0
  7  6  1  0  0  0  0
  8  7  1  0  0  0  0
  8 15  1  0  0  0  0
  9  6  2  0  0  0  0
  9 10  1  0  0  0  0
 10  1  2  0  0  0  0
 13  8  1  0  0  0  0
 14  8  1  0  0  0  0
 16  9  1  0  0  0  0
 17 10  1  0  0  0  0
M  RAD  4   2   2   3   3   4   2  11   2
M  END
