Coordinates from ORCA-job 4-MeOPhN2+_B3LYPG-6-31G_dp-d09-49-n800
 OpenBabel11261919463D

 17 16  0  0  0  0  0  0  0  0999 V2000
   -1.4358   -0.1732   -0.0441 C   0  0  0  0  0  0  0  0  0  0  0  0
   -2.7883   -0.1999    0.0577 N   0  0  0  0  0  0  0  0  0  0  0  0
   -3.9049   -0.2201    0.1418 N   0  0  0  0  0  0  0  0  0  0  0  0
   -0.7428    1.0441   -0.0126 C   0  0  0  0  0  0  0  0  0  0  0  0
    0.5985    1.1421   -0.1075 C   0  0  0  0  0  0  0  0  0  0  0  0
    1.3410   -0.0776   -0.2478 C   0  0  0  0  0  0  0  0  0  0  0  0
    2.6459    0.0684   -0.3350 O   0  0  0  0  0  0  0  0  0  0  0  0
    3.5228   -1.0733   -0.4775 C   0  0  0  0  0  0  0  0  0  0  0  0
    0.6631   -1.3298   -0.2835 C   0  0  0  0  0  0  0  0  0  0  0  0
   -0.7074   -1.3891   -0.1838 C   0  0  0  0  0  0  0  0  0  0  0  0
   -2.6385    3.7288    0.3170 H   0  0  0  0  0  0  0  0  0  0  0  0
    1.1447    2.0811   -0.0837 H   0  0  0  0  0  0  0  0  0  0  0  0
    4.5259   -0.6540   -0.5183 H   0  0  0  0  0  0  0  0  0  0  0  0
    3.3026   -1.6074   -1.4058 H   0  0  0  0  0  0  0  0  0  0  0  0
    3.4277   -1.7347    0.3879 H   0  0  0  0  0  0  0  0  0  0  0  0
    1.2230   -2.2501   -0.3900 H   0  0  0  0  0  0  0  0  0  0  0  0
   -1.2324   -2.3400   -0.2101 H   0  0  0  0  0  0  0  0  0  0  0  0
  1  4  1  0  0  0  0
  1  2  1  0  0  0  0
  2  3  1  0  0  0  0
  5 12  1  0  0  0  0
  5  4  2  0  0  0  0
  6  5  1  0  0  0  0
  7  6  1  0  0  0  0
  8  7  1  0  0  0  0
  8 15  1  0  0  0  0
  9  6  2  0  0  0  0
  9 10  1  0  0  0  0
 10  1  2  0  0  0  0
 13  8  1  0  0  0  0
 14  8  1  0  0  0  0
 16  9  1  0  0  0  0
 17 10  1  0  0  0  0
M  RAD  4   2   2   3   3   4   2  11   2
M  END
