Coordinates from ORCA-job 4-MeOPhN2+_B3LYPG-6-31G_dp-d09-49-n800
 OpenBabel11261919463D

 17 16  0  0  0  0  0  0  0  0999 V2000
   -1.4472   -0.1542   -0.0421 C   0  0  0  0  0  0  0  0  0  0  0  0
   -2.7989   -0.1763    0.0599 N   0  0  0  0  0  0  0  0  0  0  0  0
   -3.9154   -0.1922    0.1443 N   0  0  0  0  0  0  0  0  0  0  0  0
   -0.7509    1.0620   -0.0112 C   0  0  0  0  0  0  0  0  0  0  0  0
    0.5907    1.1597   -0.1062 C   0  0  0  0  0  0  0  0  0  0  0  0
    1.3300   -0.0613   -0.2461 C   0  0  0  0  0  0  0  0  0  0  0  0
    2.6351    0.0832   -0.3335 O   0  0  0  0  0  0  0  0  0  0  0  0
    3.5106   -1.0597   -0.4755 C   0  0  0  0  0  0  0  0  0  0  0  0
    0.6507   -1.3125   -0.2814 C   0  0  0  0  0  0  0  0  0  0  0  0
   -0.7202   -1.3701   -0.1815 C   0  0  0  0  0  0  0  0  0  0  0  0
   -2.4564    3.4477    0.2851 H   0  0  0  0  0  0  0  0  0  0  0  0
    1.1354    2.0988   -0.0823 H   0  0  0  0  0  0  0  0  0  0  0  0
    4.5141   -0.6415   -0.5164 H   0  0  0  0  0  0  0  0  0  0  0  0
    3.2897   -1.5939   -1.4036 H   0  0  0  0  0  0  0  0  0  0  0  0
    3.4147   -1.7205    0.3902 H   0  0  0  0  0  0  0  0  0  0  0  0
    1.2092   -2.2337   -0.3877 H   0  0  0  0  0  0  0  0  0  0  0  0
   -1.2461   -2.3202   -0.2076 H   0  0  0  0  0  0  0  0  0  0  0  0
  1  4  1  0  0  0  0
  1  2  1  0  0  0  0
  2  3  1  0  0  0  0
  5 12  1  0  0  0  0
  5  4  2  0  0  0  0
  6  5  1  0  0  0  0
  7  6  1  0  0  0  0
  8  7  1  0  0  0  0
  8 15  1  0  0  0  0
  9  6  2  0  0  0  0
  9 10  1  0  0  0  0
 10  1  2  0  0  0  0
 13  8  1  0  0  0  0
 14  8  1  0  0  0  0
 16  9  1  0  0  0  0
 17 10  1  0  0  0  0
M  RAD  4   2   2   3   3   4   2  11   2
M  END
