Coordinates from ORCA-job 4-MeOPhN2+_B3LYPG-6-31G_dp-d09-49-n800
 OpenBabel11261919463D

 17 16  0  0  0  0  0  0  0  0999 V2000
   -1.4381   -0.1690   -0.0442 C   0  0  0  0  0  0  0  0  0  0  0  0
   -2.7905   -0.1945    0.0573 N   0  0  0  0  0  0  0  0  0  0  0  0
   -3.9068   -0.2139    0.1447 N   0  0  0  0  0  0  0  0  0  0  0  0
   -0.7438    1.0476   -0.0127 C   0  0  0  0  0  0  0  0  0  0  0  0
    0.5976    1.1461   -0.1074 C   0  0  0  0  0  0  0  0  0  0  0  0
    1.3392   -0.0742   -0.2475 C   0  0  0  0  0  0  0  0  0  0  0  0
    2.6442    0.0711   -0.3346 O   0  0  0  0  0  0  0  0  0  0  0  0
    3.5205   -1.0711   -0.4770 C   0  0  0  0  0  0  0  0  0  0  0  0
    0.6606   -1.3260   -0.2833 C   0  0  0  0  0  0  0  0  0  0  0  0
   -0.7099   -1.3850   -0.1837 C   0  0  0  0  0  0  0  0  0  0  0  0
   -2.6052    3.6711    0.3105 H   0  0  0  0  0  0  0  0  0  0  0  0
    1.1434    2.0851   -0.0835 H   0  0  0  0  0  0  0  0  0  0  0  0
    4.5238   -0.6522   -0.5176 H   0  0  0  0  0  0  0  0  0  0  0  0
    3.3001   -1.6051   -1.4052 H   0  0  0  0  0  0  0  0  0  0  0  0
    3.4249   -1.7324    0.3885 H   0  0  0  0  0  0  0  0  0  0  0  0
    1.2202   -2.2466   -0.3897 H   0  0  0  0  0  0  0  0  0  0  0  0
   -1.2350   -2.3357   -0.2102 H   0  0  0  0  0  0  0  0  0  0  0  0
  1  4  1  0  0  0  0
  1  2  1  0  0  0  0
  2  3  1  0  0  0  0
  5 12  1  0  0  0  0
  5  4  2  0  0  0  0
  6  5  1  0  0  0  0
  7  6  1  0  0  0  0
  8  7  1  0  0  0  0
  8 15  1  0  0  0  0
  9  6  2  0  0  0  0
  9 10  1  0  0  0  0
 10  1  2  0  0  0  0
 13  8  1  0  0  0  0
 14  8  1  0  0  0  0
 16  9  1  0  0  0  0
 17 10  1  0  0  0  0
M  RAD  4   2   2   3   3   4   2  11   2
M  END
