Coordinates from ORCA-job 4-MeOPhN2+_B3LYPG-6-31G_dp-d09-49-n800
 OpenBabel11261919463D

 17 16  0  0  0  0  0  0  0  0999 V2000
   -1.4836   -0.0941   -0.0351 C   0  0  0  0  0  0  0  0  0  0  0  0
   -2.8344   -0.1262    0.0661 N   0  0  0  0  0  0  0  0  0  0  0  0
   -3.9514   -0.1492    0.1500 N   0  0  0  0  0  0  0  0  0  0  0  0
   -0.8111    1.1473   -0.0003 C   0  0  0  0  0  0  0  0  0  0  0  0
    0.5450    1.2089   -0.0988 C   0  0  0  0  0  0  0  0  0  0  0  0
    1.2807   -0.0054   -0.2381 C   0  0  0  0  0  0  0  0  0  0  0  0
    2.5878    0.1406   -0.3256 O   0  0  0  0  0  0  0  0  0  0  0  0
    3.4611   -1.0018   -0.4680 C   0  0  0  0  0  0  0  0  0  0  0  0
    0.6069   -1.2571   -0.2742 C   0  0  0  0  0  0  0  0  0  0  0  0
   -0.7648   -1.3095   -0.1739 C   0  0  0  0  0  0  0  0  0  0  0  0
   -1.7224    2.5381    0.1652 H   0  0  0  0  0  0  0  0  0  0  0  0
    1.0880    2.1462   -0.0747 H   0  0  0  0  0  0  0  0  0  0  0  0
    4.4655   -0.5854   -0.5092 H   0  0  0  0  0  0  0  0  0  0  0  0
    3.2406   -1.5366   -1.3960 H   0  0  0  0  0  0  0  0  0  0  0  0
    3.3659   -1.6638    0.3971 H   0  0  0  0  0  0  0  0  0  0  0  0
    1.1635   -2.1793   -0.3804 H   0  0  0  0  0  0  0  0  0  0  0  0
   -1.2923   -2.2574   -0.1998 H   0  0  0  0  0  0  0  0  0  0  0  0
  1  4  1  0  0  0  0
  1  2  1  0  0  0  0
  2  3  1  0  0  0  0
  5 12  1  0  0  0  0
  5  4  2  0  0  0  0
  6  5  1  0  0  0  0
  7  6  1  0  0  0  0
  8  7  1  0  0  0  0
  8 15  1  0  0  0  0
  9  6  2  0  0  0  0
  9 10  1  0  0  0  0
 10  1  2  0  0  0  0
 13  8  1  0  0  0  0
 14  8  1  0  0  0  0
 16  9  1  0  0  0  0
 17 10  1  0  0  0  0
M  RAD  4   2   2   3   3   4   2  11   2
M  END
