Coordinates from ORCA-job 4-MeOPhN2+_B3LYPG-6-31G_dp-d09-49-n800
 OpenBabel11261919463D

 17 16  0  0  0  0  0  0  0  0999 V2000
   -1.4753   -0.1146   -0.0370 C   0  0  0  0  0  0  0  0  0  0  0  0
   -2.8256   -0.1395    0.0647 N   0  0  0  0  0  0  0  0  0  0  0  0
   -3.9423   -0.1573    0.1490 N   0  0  0  0  0  0  0  0  0  0  0  0
   -0.7895    1.1136   -0.0042 C   0  0  0  0  0  0  0  0  0  0  0  0
    0.5596    1.1959   -0.1009 C   0  0  0  0  0  0  0  0  0  0  0  0
    1.2956   -0.0219   -0.2406 C   0  0  0  0  0  0  0  0  0  0  0  0
    2.6018    0.1236   -0.3281 O   0  0  0  0  0  0  0  0  0  0  0  0
    3.4762   -1.0189   -0.4702 C   0  0  0  0  0  0  0  0  0  0  0  0
    0.6197   -1.2735   -0.2765 C   0  0  0  0  0  0  0  0  0  0  0  0
   -0.7518   -1.3293   -0.1763 C   0  0  0  0  0  0  0  0  0  0  0  0
   -1.9407    2.8114    0.2006 H   0  0  0  0  0  0  0  0  0  0  0  0
    1.1006    2.1348   -0.0764 H   0  0  0  0  0  0  0  0  0  0  0  0
    4.4801   -0.6015   -0.5112 H   0  0  0  0  0  0  0  0  0  0  0  0
    3.2557   -1.5534   -1.3983 H   0  0  0  0  0  0  0  0  0  0  0  0
    3.3808   -1.6804    0.3952 H   0  0  0  0  0  0  0  0  0  0  0  0
    1.1775   -2.1951   -0.3828 H   0  0  0  0  0  0  0  0  0  0  0  0
   -1.2776   -2.2786   -0.2024 H   0  0  0  0  0  0  0  0  0  0  0  0
  1  4  1  0  0  0  0
  1  2  1  0  0  0  0
  2  3  1  0  0  0  0
  5 12  1  0  0  0  0
  5  4  2  0  0  0  0
  6  5  1  0  0  0  0
  7  6  1  0  0  0  0
  8  7  1  0  0  0  0
  8 15  1  0  0  0  0
  9  6  2  0  0  0  0
  9 10  1  0  0  0  0
 10  1  2  0  0  0  0
 13  8  1  0  0  0  0
 14  8  1  0  0  0  0
 16  9  1  0  0  0  0
 17 10  1  0  0  0  0
M  RAD  4   2   2   3   3   4   2  11   2
M  END
