Coordinates from ORCA-job 4-MeOPhN2+_B3LYPG-6-31G_dp-d09-49-n800
 OpenBabel11261919463D

 17 16  0  0  0  0  0  0  0  0999 V2000
   -1.4643   -0.1327   -0.0392 C   0  0  0  0  0  0  0  0  0  0  0  0
   -2.8149   -0.1541    0.0628 N   0  0  0  0  0  0  0  0  0  0  0  0
   -3.9314   -0.1690    0.1473 N   0  0  0  0  0  0  0  0  0  0  0  0
   -0.7704    1.0872   -0.0076 C   0  0  0  0  0  0  0  0  0  0  0  0
    0.5738    1.1810   -0.1032 C   0  0  0  0  0  0  0  0  0  0  0  0
    1.3111   -0.0390   -0.2431 C   0  0  0  0  0  0  0  0  0  0  0  0
    2.6166    0.1059   -0.3306 O   0  0  0  0  0  0  0  0  0  0  0  0
    3.4916   -1.0369   -0.4725 C   0  0  0  0  0  0  0  0  0  0  0  0
    0.6331   -1.2903   -0.2787 C   0  0  0  0  0  0  0  0  0  0  0  0
   -0.7381   -1.3476   -0.1786 C   0  0  0  0  0  0  0  0  0  0  0  0
   -2.1675    3.0872    0.2376 H   0  0  0  0  0  0  0  0  0  0  0  0
    1.1155    2.1206   -0.0789 H   0  0  0  0  0  0  0  0  0  0  0  0
    4.4953   -0.6189   -0.5135 H   0  0  0  0  0  0  0  0  0  0  0  0
    3.2710   -1.5712   -1.4006 H   0  0  0  0  0  0  0  0  0  0  0  0
    3.3959   -1.6978    0.3931 H   0  0  0  0  0  0  0  0  0  0  0  0
    1.1914   -2.2116   -0.3850 H   0  0  0  0  0  0  0  0  0  0  0  0
   -1.2636   -2.2975   -0.2048 H   0  0  0  0  0  0  0  0  0  0  0  0
  1  4  1  0  0  0  0
  1  2  1  0  0  0  0
  2  3  1  0  0  0  0
  5 12  1  0  0  0  0
  5  4  2  0  0  0  0
  6  5  1  0  0  0  0
  7  6  1  0  0  0  0
  8  7  1  0  0  0  0
  8 15  1  0  0  0  0
  9  6  2  0  0  0  0
  9 10  1  0  0  0  0
 10  1  2  0  0  0  0
 13  8  1  0  0  0  0
 14  8  1  0  0  0  0
 16  9  1  0  0  0  0
 17 10  1  0  0  0  0
M  RAD  4   2   2   3   3   4   2  11   2
M  END
