Coordinates from ORCA-job 4-MeOPhN2+_B3LYPG-6-31G_dp-d09-49-n800
 OpenBabel11261919463D

 17 16  0  0  0  0  0  0  0  0999 V2000
   -1.4227   -0.2980   -0.0529 C   0  0  0  0  0  0  0  0  0  0  0  0
   -2.7765   -0.3648    0.0462 N   0  0  0  0  0  0  0  0  0  0  0  0
   -3.8925   -0.4166    0.1278 N   0  0  0  0  0  0  0  0  0  0  0  0
   -0.7719    0.9422   -0.0158 C   0  0  0  0  0  0  0  0  0  0  0  0
    0.5695    1.0644   -0.1091 C   0  0  0  0  0  0  0  0  0  0  0  0
    1.3453   -0.1333   -0.2512 C   0  0  0  0  0  0  0  0  0  0  0  0
    2.6477    0.0458   -0.3360 O   0  0  0  0  0  0  0  0  0  0  0  0
    3.5515   -1.0733   -0.4804 C   0  0  0  0  0  0  0  0  0  0  0  0
    0.7013   -1.4033   -0.2915 C   0  0  0  0  0  0  0  0  0  0  0  0
   -0.6670   -1.4973   -0.1943 C   0  0  0  0  0  0  0  0  0  0  0  0
   -2.9174    4.8853    0.4134 H   0  0  0  0  0  0  0  0  0  0  0  0
    1.0983    2.0146   -0.0827 H   0  0  0  0  0  0  0  0  0  0  0  0
    4.5446   -0.6305   -0.5185 H   0  0  0  0  0  0  0  0  0  0  0  0
    3.3461   -1.6106   -1.4102 H   0  0  0  0  0  0  0  0  0  0  0  0
    3.4718   -1.7400    0.3827 H   0  0  0  0  0  0  0  0  0  0  0  0
    1.2855   -2.3083   -0.3990 H   0  0  0  0  0  0  0  0  0  0  0  0
   -1.1686   -2.4610   -0.2240 H   0  0  0  0  0  0  0  0  0  0  0  0
  1  4  1  0  0  0  0
  1  2  1  0  0  0  0
  2  3  1  0  0  0  0
  5 12  1  0  0  0  0
  5  4  2  0  0  0  0
  6  5  1  0  0  0  0
  7  6  1  0  0  0  0
  8  7  1  0  0  0  0
  8 15  1  0  0  0  0
  9  6  2  0  0  0  0
  9 10  1  0  0  0  0
 10  1  2  0  0  0  0
 13  8  1  0  0  0  0
 14  8  1  0  0  0  0
 16  9  1  0  0  0  0
 17 10  1  0  0  0  0
M  RAD  4   2   2   3   3   4   2  11   2
M  END
