Coordinates from ORCA-job 4-MeOPhN2+_B3LYPG-6-31G_dp-d09-49-n800
 OpenBabel11261919463D

 17 16  0  0  0  0  0  0  0  0999 V2000
   -1.4824   -0.0977   -0.0354 C   0  0  0  0  0  0  0  0  0  0  0  0
   -2.8330   -0.1284    0.0659 N   0  0  0  0  0  0  0  0  0  0  0  0
   -3.9500   -0.1505    0.1500 N   0  0  0  0  0  0  0  0  0  0  0  0
   -0.8074    1.1413   -0.0010 C   0  0  0  0  0  0  0  0  0  0  0  0
    0.5474    1.2069   -0.0992 C   0  0  0  0  0  0  0  0  0  0  0  0
    1.2831   -0.0081   -0.2386 C   0  0  0  0  0  0  0  0  0  0  0  0
    2.5901    0.1378   -0.3260 O   0  0  0  0  0  0  0  0  0  0  0  0
    3.4636   -1.0046   -0.4683 C   0  0  0  0  0  0  0  0  0  0  0  0
    0.6090   -1.2598   -0.2746 C   0  0  0  0  0  0  0  0  0  0  0  0
   -0.7627   -1.3129   -0.1743 C   0  0  0  0  0  0  0  0  0  0  0  0
   -1.7580    2.5837    0.1711 H   0  0  0  0  0  0  0  0  0  0  0  0
    1.0900    2.1445   -0.0750 H   0  0  0  0  0  0  0  0  0  0  0  0
    4.4678   -0.5880   -0.5095 H   0  0  0  0  0  0  0  0  0  0  0  0
    3.2431   -1.5393   -1.3963 H   0  0  0  0  0  0  0  0  0  0  0  0
    3.3683   -1.6665    0.3968 H   0  0  0  0  0  0  0  0  0  0  0  0
    1.1659   -2.1819   -0.3809 H   0  0  0  0  0  0  0  0  0  0  0  0
   -1.2898   -2.2611   -0.2003 H   0  0  0  0  0  0  0  0  0  0  0  0
  1  4  1  0  0  0  0
  1  2  1  0  0  0  0
  2  3  1  0  0  0  0
  5 12  1  0  0  0  0
  5  4  2  0  0  0  0
  6  5  1  0  0  0  0
  7  6  1  0  0  0  0
  8  7  1  0  0  0  0
  8 15  1  0  0  0  0
  9  6  2  0  0  0  0
  9 10  1  0  0  0  0
 10  1  2  0  0  0  0
 13  8  1  0  0  0  0
 14  8  1  0  0  0  0
 16  9  1  0  0  0  0
 17 10  1  0  0  0  0
M  RAD  4   2   2   3   3   4   2  11   2
M  END
