Coordinates from ORCA-job 4-MeOPhN2+_B3LYPG-6-31G_dp-d09-49-n800
 OpenBabel11261919463D

 17 16  0  0  0  0  0  0  0  0999 V2000
   -1.4294   -0.1882   -0.0454 C   0  0  0  0  0  0  0  0  0  0  0  0
   -2.7824   -0.2191    0.0561 N   0  0  0  0  0  0  0  0  0  0  0  0
   -3.8990   -0.2431    0.1400 N   0  0  0  0  0  0  0  0  0  0  0  0
   -0.7407    1.0315   -0.0132 C   0  0  0  0  0  0  0  0  0  0  0  0
    0.6008    1.1298   -0.1081 C   0  0  0  0  0  0  0  0  0  0  0  0
    1.3462   -0.0881   -0.2487 C   0  0  0  0  0  0  0  0  0  0  0  0
    2.6511    0.0602   -0.3358 O   0  0  0  0  0  0  0  0  0  0  0  0
    3.5298   -1.0799   -0.4787 C   0  0  0  0  0  0  0  0  0  0  0  0
    0.6708   -1.3417   -0.2849 C   0  0  0  0  0  0  0  0  0  0  0  0
   -0.6994   -1.4033   -0.1854 C   0  0  0  0  0  0  0  0  0  0  0  0
   -2.7382    3.9188    0.3364 H   0  0  0  0  0  0  0  0  0  0  0  0
    1.1470    2.0692   -0.0842 H   0  0  0  0  0  0  0  0  0  0  0  0
    4.5322   -0.6590   -0.5192 H   0  0  0  0  0  0  0  0  0  0  0  0
    3.3106   -1.6140   -1.4071 H   0  0  0  0  0  0  0  0  0  0  0  0
    3.4358   -1.7419    0.3864 H   0  0  0  0  0  0  0  0  0  0  0  0
    1.2326   -2.2609   -0.3916 H   0  0  0  0  0  0  0  0  0  0  0  0
   -1.2230   -2.3550   -0.2121 H   0  0  0  0  0  0  0  0  0  0  0  0
  1  4  1  0  0  0  0
  1  2  1  0  0  0  0
  2  3  1  0  0  0  0
  5 12  1  0  0  0  0
  5  4  2  0  0  0  0
  6  5  1  0  0  0  0
  7  6  1  0  0  0  0
  8  7  1  0  0  0  0
  8 15  1  0  0  0  0
  9  6  2  0  0  0  0
  9 10  1  0  0  0  0
 10  1  2  0  0  0  0
 13  8  1  0  0  0  0
 14  8  1  0  0  0  0
 16  9  1  0  0  0  0
 17 10  1  0  0  0  0
M  RAD  4   2   2   3   3   4   2  11   2
M  END
