Coordinates from ORCA-job 4-MeOPhN2+_B3LYPG-6-31G_dp-d09-49-n800
 OpenBabel11261919463D

 17 16  0  0  0  0  0  0  0  0999 V2000
   -1.4221   -0.2894   -0.0524 C   0  0  0  0  0  0  0  0  0  0  0  0
   -2.7760   -0.3533    0.0469 N   0  0  0  0  0  0  0  0  0  0  0  0
   -3.8920   -0.4028    0.1289 N   0  0  0  0  0  0  0  0  0  0  0  0
   -0.7682    0.9492   -0.0156 C   0  0  0  0  0  0  0  0  0  0  0  0
    0.5733    1.0688   -0.1091 C   0  0  0  0  0  0  0  0  0  0  0  0
    1.3464   -0.1307   -0.2511 C   0  0  0  0  0  0  0  0  0  0  0  0
    2.6491    0.0456   -0.3361 O   0  0  0  0  0  0  0  0  0  0  0  0
    3.5506   -1.0753   -0.4804 C   0  0  0  0  0  0  0  0  0  0  0  0
    0.6996   -1.3992   -0.2911 C   0  0  0  0  0  0  0  0  0  0  0  0
   -0.6688   -1.4902   -0.1938 C   0  0  0  0  0  0  0  0  0  0  0  0
   -2.9181    4.8216    0.4090 H   0  0  0  0  0  0  0  0  0  0  0  0
    1.1039    2.0179   -0.0829 H   0  0  0  0  0  0  0  0  0  0  0  0
    4.5446   -0.6346   -0.5187 H   0  0  0  0  0  0  0  0  0  0  0  0
    3.3440   -1.6124   -1.4102 H   0  0  0  0  0  0  0  0  0  0  0  0
    3.4696   -1.7418    0.3827 H   0  0  0  0  0  0  0  0  0  0  0  0
    1.2818   -2.3055   -0.3987 H   0  0  0  0  0  0  0  0  0  0  0  0
   -1.1725   -2.4528   -0.2232 H   0  0  0  0  0  0  0  0  0  0  0  0
  1  4  1  0  0  0  0
  1  2  1  0  0  0  0
  2  3  1  0  0  0  0
  5 12  1  0  0  0  0
  5  4  2  0  0  0  0
  6  5  1  0  0  0  0
  7  6  1  0  0  0  0
  8  7  1  0  0  0  0
  8 15  1  0  0  0  0
  9  6  2  0  0  0  0
  9 10  1  0  0  0  0
 10  1  2  0  0  0  0
 13  8  1  0  0  0  0
 14  8  1  0  0  0  0
 16  9  1  0  0  0  0
 17 10  1  0  0  0  0
M  RAD  4   2   2   3   3   4   2  11   2
M  END
