Coordinates from ORCA-job 4-MeOPhN2+_B3LYPG-6-31G_dp-d09-49-n800
 OpenBabel11261919463D

 17 16  0  0  0  0  0  0  0  0999 V2000
   -1.4647   -0.1320   -0.0391 C   0  0  0  0  0  0  0  0  0  0  0  0
   -2.8153   -0.1535    0.0629 N   0  0  0  0  0  0  0  0  0  0  0  0
   -3.9318   -0.1685    0.1473 N   0  0  0  0  0  0  0  0  0  0  0  0
   -0.7711    1.0881   -0.0075 C   0  0  0  0  0  0  0  0  0  0  0  0
    0.5733    1.1816   -0.1031 C   0  0  0  0  0  0  0  0  0  0  0  0
    1.3105   -0.0383   -0.2430 C   0  0  0  0  0  0  0  0  0  0  0  0
    2.6160    0.1066   -0.3305 O   0  0  0  0  0  0  0  0  0  0  0  0
    3.4911   -1.0362   -0.4724 C   0  0  0  0  0  0  0  0  0  0  0  0
    0.6326   -1.2897   -0.2786 C   0  0  0  0  0  0  0  0  0  0  0  0
   -0.7387   -1.3469   -0.1785 C   0  0  0  0  0  0  0  0  0  0  0  0
   -2.1587    3.0765    0.2362 H   0  0  0  0  0  0  0  0  0  0  0  0
    1.1149    2.1211   -0.0788 H   0  0  0  0  0  0  0  0  0  0  0  0
    4.4947   -0.6182   -0.5134 H   0  0  0  0  0  0  0  0  0  0  0  0
    3.2704   -1.5705   -1.4005 H   0  0  0  0  0  0  0  0  0  0  0  0
    3.3953   -1.6972    0.3932 H   0  0  0  0  0  0  0  0  0  0  0  0
    1.1908   -2.2110   -0.3849 H   0  0  0  0  0  0  0  0  0  0  0  0
   -1.2642   -2.2968   -0.2047 H   0  0  0  0  0  0  0  0  0  0  0  0
  1  4  1  0  0  0  0
  1  2  1  0  0  0  0
  2  3  1  0  0  0  0
  5 12  1  0  0  0  0
  5  4  2  0  0  0  0
  6  5  1  0  0  0  0
  7  6  1  0  0  0  0
  8  7  1  0  0  0  0
  8 15  1  0  0  0  0
  9  6  2  0  0  0  0
  9 10  1  0  0  0  0
 10  1  2  0  0  0  0
 13  8  1  0  0  0  0
 14  8  1  0  0  0  0
 16  9  1  0  0  0  0
 17 10  1  0  0  0  0
M  RAD  4   2   2   3   3   4   2  11   2
M  END
