Coordinates from ORCA-job 4-MeOPhN2+_B3LYPG-6-31G_dp-d09-49-n800
 OpenBabel11261919463D

 17 16  0  0  0  0  0  0  0  0999 V2000
   -1.4248   -0.2054   -0.0469 C   0  0  0  0  0  0  0  0  0  0  0  0
   -2.7783   -0.2417    0.0547 N   0  0  0  0  0  0  0  0  0  0  0  0
   -3.8948   -0.2701    0.1384 N   0  0  0  0  0  0  0  0  0  0  0  0
   -0.7417    1.0173   -0.0138 C   0  0  0  0  0  0  0  0  0  0  0  0
    0.6000    1.1174   -0.1086 C   0  0  0  0  0  0  0  0  0  0  0  0
    1.3494   -0.0979   -0.2494 C   0  0  0  0  0  0  0  0  0  0  0  0
    2.6541    0.0541   -0.3362 O   0  0  0  0  0  0  0  0  0  0  0  0
    3.5357   -1.0836   -0.4794 C   0  0  0  0  0  0  0  0  0  0  0  0
    0.6779   -1.3536   -0.2865 C   0  0  0  0  0  0  0  0  0  0  0  0
   -0.6921   -1.4190   -0.1872 C   0  0  0  0  0  0  0  0  0  0  0  0
   -2.8130    4.1078    0.3539 H   0  0  0  0  0  0  0  0  0  0  0  0
    1.1449    2.0578   -0.0843 H   0  0  0  0  0  0  0  0  0  0  0  0
    4.5371   -0.6602   -0.5195 H   0  0  0  0  0  0  0  0  0  0  0  0
    3.3182   -1.6180   -1.4081 H   0  0  0  0  0  0  0  0  0  0  0  0
    3.4433   -1.7463    0.3853 H   0  0  0  0  0  0  0  0  0  0  0  0
    1.2424   -2.2711   -0.3934 H   0  0  0  0  0  0  0  0  0  0  0  0
   -1.2133   -2.3721   -0.2144 H   0  0  0  0  0  0  0  0  0  0  0  0
  1  4  1  0  0  0  0
  1  2  1  0  0  0  0
  2  3  1  0  0  0  0
  5 12  1  0  0  0  0
  5  4  2  0  0  0  0
  6  5  1  0  0  0  0
  7  6  1  0  0  0  0
  8  7  1  0  0  0  0
  8 15  1  0  0  0  0
  9  6  2  0  0  0  0
  9 10  1  0  0  0  0
 10  1  2  0  0  0  0
 13  8  1  0  0  0  0
 14  8  1  0  0  0  0
 16  9  1  0  0  0  0
 17 10  1  0  0  0  0
M  RAD  4   2   2   3   3   4   2  11   2
M  END
