Coordinates from ORCA-job 4-MeOPhN2+_B3LYPG-6-31G_dp-d09-49-n800
 OpenBabel11261919463D

 17 17  0  0  0  0  0  0  0  0999 V2000
   -1.4952   -0.0545   -0.0313 C   0  0  0  0  0  0  0  0  0  0  0  0
   -2.8485   -0.0978    0.0689 N   0  0  0  0  0  0  0  0  0  0  0  0
   -3.9660   -0.1288    0.1519 N   0  0  0  0  0  0  0  0  0  0  0  0
   -0.8462    1.2102    0.0069 C   0  0  0  0  0  0  0  0  0  0  0  0
    0.5210    1.2296   -0.0955 C   0  0  0  0  0  0  0  0  0  0  0  0
    1.2585    0.0210   -0.2347 C   0  0  0  0  0  0  0  0  0  0  0  0
    2.5664    0.1682   -0.3223 O   0  0  0  0  0  0  0  0  0  0  0  0
    3.4385   -0.9742   -0.4645 C   0  0  0  0  0  0  0  0  0  0  0  0
    0.5857   -1.2287   -0.2705 C   0  0  0  0  0  0  0  0  0  0  0  0
   -0.7867   -1.2722   -0.1695 C   0  0  0  0  0  0  0  0  0  0  0  0
   -1.3752    2.0532    0.1060 H   0  0  0  0  0  0  0  0  0  0  0  0
    1.0694    2.1647   -0.0720 H   0  0  0  0  0  0  0  0  0  0  0  0
    4.4434   -0.5592   -0.5060 H   0  0  0  0  0  0  0  0  0  0  0  0
    3.2177   -1.5095   -1.3922 H   0  0  0  0  0  0  0  0  0  0  0  0
    3.3433   -1.6364    0.4006 H   0  0  0  0  0  0  0  0  0  0  0  0
    1.1383   -2.1535   -0.3767 H   0  0  0  0  0  0  0  0  0  0  0  0
   -1.3195   -2.2167   -0.1948 H   0  0  0  0  0  0  0  0  0  0  0  0
  1  4  1  0  0  0  0
  1  2  1  0  0  0  0
  2  3  1  0  0  0  0
  4 11  1  0  0  0  0
  5 12  1  0  0  0  0
  5  4  2  0  0  0  0
  6  5  1  0  0  0  0
  7  6  1  0  0  0  0
  8  7  1  0  0  0  0
  8 15  1  0  0  0  0
  9  6  2  0  0  0  0
  9 10  1  0  0  0  0
 10  1  2  0  0  0  0
 13  8  1  0  0  0  0
 14  8  1  0  0  0  0
 16  9  1  0  0  0  0
 17 10  1  0  0  0  0
M  RAD  2   2   2   3   3
M  END
