Coordinates from ORCA-job 4-MeOPhN2+_B3LYPG-6-31G_dp-d09-49-n800
 OpenBabel11261919463D

 17 16  0  0  0  0  0  0  0  0999 V2000
   -1.4288   -0.1901   -0.0456 C   0  0  0  0  0  0  0  0  0  0  0  0
   -2.7819   -0.2218    0.0559 N   0  0  0  0  0  0  0  0  0  0  0  0
   -3.8984   -0.2463    0.1399 N   0  0  0  0  0  0  0  0  0  0  0  0
   -0.7408    1.0299   -0.0132 C   0  0  0  0  0  0  0  0  0  0  0  0
    0.6008    1.1283   -0.1082 C   0  0  0  0  0  0  0  0  0  0  0  0
    1.3466   -0.0893   -0.2488 C   0  0  0  0  0  0  0  0  0  0  0  0
    2.6515    0.0595   -0.3358 O   0  0  0  0  0  0  0  0  0  0  0  0
    3.5305   -1.0803   -0.4788 C   0  0  0  0  0  0  0  0  0  0  0  0
    0.6717   -1.3431   -0.2851 C   0  0  0  0  0  0  0  0  0  0  0  0
   -0.6985   -1.4051   -0.1856 C   0  0  0  0  0  0  0  0  0  0  0  0
   -2.7475    3.9412    0.3385 H   0  0  0  0  0  0  0  0  0  0  0  0
    1.1468    2.0678   -0.0842 H   0  0  0  0  0  0  0  0  0  0  0  0
    4.5328   -0.6592   -0.5192 H   0  0  0  0  0  0  0  0  0  0  0  0
    3.3115   -1.6145   -1.4073 H   0  0  0  0  0  0  0  0  0  0  0  0
    3.4367   -1.7424    0.3863 H   0  0  0  0  0  0  0  0  0  0  0  0
    1.2337   -2.2621   -0.3918 H   0  0  0  0  0  0  0  0  0  0  0  0
   -1.2219   -2.3570   -0.2124 H   0  0  0  0  0  0  0  0  0  0  0  0
  1  4  1  0  0  0  0
  1  2  1  0  0  0  0
  2  3  1  0  0  0  0
  5 12  1  0  0  0  0
  5  4  2  0  0  0  0
  6  5  1  0  0  0  0
  7  6  1  0  0  0  0
  8  7  1  0  0  0  0
  8 15  1  0  0  0  0
  9  6  2  0  0  0  0
  9 10  1  0  0  0  0
 10  1  2  0  0  0  0
 13  8  1  0  0  0  0
 14  8  1  0  0  0  0
 16  9  1  0  0  0  0
 17 10  1  0  0  0  0
M  RAD  4   2   2   3   3   4   2  11   2
M  END
