Coordinates from ORCA-job 4-MeOPhN2+_B3LYPG-6-31G_dp-d09-49-n800
 OpenBabel11261919463D

 17 16  0  0  0  0  0  0  0  0999 V2000
   -1.4582   -0.1407   -0.0403 C   0  0  0  0  0  0  0  0  0  0  0  0
   -2.8091   -0.1617    0.0618 N   0  0  0  0  0  0  0  0  0  0  0  0
   -3.9256   -0.1765    0.1462 N   0  0  0  0  0  0  0  0  0  0  0  0
   -0.7625    1.0770   -0.0091 C   0  0  0  0  0  0  0  0  0  0  0  0
    0.5804    1.1734   -0.1044 C   0  0  0  0  0  0  0  0  0  0  0  0
    1.3184   -0.0472   -0.2443 C   0  0  0  0  0  0  0  0  0  0  0  0
    2.6236    0.0974   -0.3317 O   0  0  0  0  0  0  0  0  0  0  0  0
    3.4988   -1.0455   -0.4737 C   0  0  0  0  0  0  0  0  0  0  0  0
    0.6397   -1.2984   -0.2797 C   0  0  0  0  0  0  0  0  0  0  0  0
   -0.7315   -1.3559   -0.1797 C   0  0  0  0  0  0  0  0  0  0  0  0
   -2.2763    3.2201    0.2554 H   0  0  0  0  0  0  0  0  0  0  0  0
    1.1230    2.1129   -0.0802 H   0  0  0  0  0  0  0  0  0  0  0  0
    4.5024   -0.6275   -0.5146 H   0  0  0  0  0  0  0  0  0  0  0  0
    3.2780   -1.5798   -1.4017 H   0  0  0  0  0  0  0  0  0  0  0  0
    3.4029   -1.7064    0.3921 H   0  0  0  0  0  0  0  0  0  0  0  0
    1.1979   -2.2197   -0.3860 H   0  0  0  0  0  0  0  0  0  0  0  0
   -1.2571   -2.3059   -0.2058 H   0  0  0  0  0  0  0  0  0  0  0  0
  1  4  1  0  0  0  0
  1  2  1  0  0  0  0
  2  3  1  0  0  0  0
  5 12  1  0  0  0  0
  5  4  2  0  0  0  0
  6  5  1  0  0  0  0
  7  6  1  0  0  0  0
  8  7  1  0  0  0  0
  8 15  1  0  0  0  0
  9  6  2  0  0  0  0
  9 10  1  0  0  0  0
 10  1  2  0  0  0  0
 13  8  1  0  0  0  0
 14  8  1  0  0  0  0
 16  9  1  0  0  0  0
 17 10  1  0  0  0  0
M  RAD  4   2   2   3   3   4   2  11   2
M  END
