Coordinates from ORCA-job 4-MeOPhN2+_B3LYPG-6-31G_dp-d09-49-n800
 OpenBabel11261919463D

 17 16  0  0  0  0  0  0  0  0999 V2000
   -1.4281   -0.3560   -0.0569 C   0  0  0  0  0  0  0  0  0  0  0  0
   -2.7812   -0.4434    0.0404 N   0  0  0  0  0  0  0  0  0  0  0  0
   -3.8964   -0.5111    0.1208 N   0  0  0  0  0  0  0  0  0  0  0  0
   -0.7981    0.8949   -0.0179 C   0  0  0  0  0  0  0  0  0  0  0  0
    0.5421    1.0355   -0.1097 C   0  0  0  0  0  0  0  0  0  0  0  0
    1.3361   -0.1499   -0.2518 C   0  0  0  0  0  0  0  0  0  0  0  0
    2.6361    0.0487   -0.3353 O   0  0  0  0  0  0  0  0  0  0  0  0
    3.5561   -1.0568   -0.4795 C   0  0  0  0  0  0  0  0  0  0  0  0
    0.7116   -1.4295   -0.2937 C   0  0  0  0  0  0  0  0  0  0  0  0
   -0.6551   -1.5442   -0.1981 C   0  0  0  0  0  0  0  0  0  0  0  0
   -2.8907    5.2961    0.4415 H   0  0  0  0  0  0  0  0  0  0  0  0
    1.0574    1.9932   -0.0821 H   0  0  0  0  0  0  0  0  0  0  0  0
    4.5428   -0.5998   -0.5165 H   0  0  0  0  0  0  0  0  0  0  0  0
    3.3595   -1.5966   -1.4099 H   0  0  0  0  0  0  0  0  0  0  0  0
    3.4855   -1.7254    0.3829 H   0  0  0  0  0  0  0  0  0  0  0  0
    1.3097   -2.3254   -0.4009 H   0  0  0  0  0  0  0  0  0  0  0  0
   -1.1422   -2.5153   -0.2289 H   0  0  0  0  0  0  0  0  0  0  0  0
  1  4  1  0  0  0  0
  1  2  1  0  0  0  0
  2  3  1  0  0  0  0
  5 12  1  0  0  0  0
  5  4  2  0  0  0  0
  6  5  1  0  0  0  0
  7  6  1  0  0  0  0
  8  7  1  0  0  0  0
  8 15  1  0  0  0  0
  9  6  2  0  0  0  0
  9 10  1  0  0  0  0
 10  1  2  0  0  0  0
 13  8  1  0  0  0  0
 14  8  1  0  0  0  0
 16  9  1  0  0  0  0
 17 10  1  0  0  0  0
M  RAD  4   2   2   3   3   4   2  11   2
M  END
