Coordinates from ORCA-job 4-MeOPhN2+_B3LYPG-6-31G_dp-d09-49-n800
 OpenBabel11261919463D

 17 16  0  0  0  0  0  0  0  0999 V2000
   -1.4218   -0.2844   -0.0521 C   0  0  0  0  0  0  0  0  0  0  0  0
   -2.7757   -0.3466    0.0474 N   0  0  0  0  0  0  0  0  0  0  0  0
   -3.8918   -0.3948    0.1295 N   0  0  0  0  0  0  0  0  0  0  0  0
   -0.7662    0.9533   -0.0155 C   0  0  0  0  0  0  0  0  0  0  0  0
    0.5754    1.0714   -0.1091 C   0  0  0  0  0  0  0  0  0  0  0  0
    1.3470   -0.1291   -0.2510 C   0  0  0  0  0  0  0  0  0  0  0  0
    2.6499    0.0456   -0.3362 O   0  0  0  0  0  0  0  0  0  0  0  0
    3.5501   -1.0765   -0.4804 C   0  0  0  0  0  0  0  0  0  0  0  0
    0.6986   -1.3968   -0.2909 C   0  0  0  0  0  0  0  0  0  0  0  0
   -0.6699   -1.4861   -0.1934 C   0  0  0  0  0  0  0  0  0  0  0  0
   -2.9182    4.7844    0.4065 H   0  0  0  0  0  0  0  0  0  0  0  0
    1.1071    2.0199   -0.0830 H   0  0  0  0  0  0  0  0  0  0  0  0
    4.5446   -0.6369   -0.5188 H   0  0  0  0  0  0  0  0  0  0  0  0
    3.3427   -1.6133   -1.4102 H   0  0  0  0  0  0  0  0  0  0  0  0
    3.4683   -1.7427    0.3828 H   0  0  0  0  0  0  0  0  0  0  0  0
    1.2796   -2.3039   -0.3984 H   0  0  0  0  0  0  0  0  0  0  0  0
   -1.1748   -2.4481   -0.2227 H   0  0  0  0  0  0  0  0  0  0  0  0
  1  4  1  0  0  0  0
  1  2  1  0  0  0  0
  2  3  1  0  0  0  0
  5 12  1  0  0  0  0
  5  4  2  0  0  0  0
  6  5  1  0  0  0  0
  7  6  1  0  0  0  0
  8  7  1  0  0  0  0
  8 15  1  0  0  0  0
  9  6  2  0  0  0  0
  9 10  1  0  0  0  0
 10  1  2  0  0  0  0
 13  8  1  0  0  0  0
 14  8  1  0  0  0  0
 16  9  1  0  0  0  0
 17 10  1  0  0  0  0
M  RAD  4   2   2   3   3   4   2  11   2
M  END
