Coordinates from ORCA-job 4-MeOPhN2+_B3LYPG-6-31G_dp-d09-49-n800
 OpenBabel11261919463D

 17 16  0  0  0  0  0  0  0  0999 V2000
   -1.4290   -0.1894   -0.0455 C   0  0  0  0  0  0  0  0  0  0  0  0
   -2.7821   -0.2208    0.0561 N   0  0  0  0  0  0  0  0  0  0  0  0
   -3.8987   -0.2450    0.1396 N   0  0  0  0  0  0  0  0  0  0  0  0
   -0.7408    1.0305   -0.0132 C   0  0  0  0  0  0  0  0  0  0  0  0
    0.6008    1.1289   -0.1081 C   0  0  0  0  0  0  0  0  0  0  0  0
    1.3465   -0.0888   -0.2487 C   0  0  0  0  0  0  0  0  0  0  0  0
    2.6514    0.0598   -0.3358 O   0  0  0  0  0  0  0  0  0  0  0  0
    3.5302   -1.0801   -0.4788 C   0  0  0  0  0  0  0  0  0  0  0  0
    0.6714   -1.3425   -0.2850 C   0  0  0  0  0  0  0  0  0  0  0  0
   -0.6988   -1.4044   -0.1854 C   0  0  0  0  0  0  0  0  0  0  0  0
   -2.7437    3.9323    0.3377 H   0  0  0  0  0  0  0  0  0  0  0  0
    1.1469    2.0684   -0.0842 H   0  0  0  0  0  0  0  0  0  0  0  0
    4.5326   -0.6591   -0.5193 H   0  0  0  0  0  0  0  0  0  0  0  0
    3.3111   -1.6143   -1.4072 H   0  0  0  0  0  0  0  0  0  0  0  0
    3.4363   -1.7422    0.3863 H   0  0  0  0  0  0  0  0  0  0  0  0
    1.2333   -2.2617   -0.3917 H   0  0  0  0  0  0  0  0  0  0  0  0
   -1.2223   -2.3562   -0.2122 H   0  0  0  0  0  0  0  0  0  0  0  0
  1  4  1  0  0  0  0
  1  2  1  0  0  0  0
  2  3  1  0  0  0  0
  5 12  1  0  0  0  0
  5  4  2  0  0  0  0
  6  5  1  0  0  0  0
  7  6  1  0  0  0  0
  8  7  1  0  0  0  0
  8 15  1  0  0  0  0
  9  6  2  0  0  0  0
  9 10  1  0  0  0  0
 10  1  2  0  0  0  0
 13  8  1  0  0  0  0
 14  8  1  0  0  0  0
 16  9  1  0  0  0  0
 17 10  1  0  0  0  0
M  RAD  4   2   2   3   3   4   2  11   2
M  END
