Coordinates from ORCA-job 4-MeOPhN2+_B3LYPG-6-31G_dp-d09-49-n800
 OpenBabel11261919463D

 17 16  0  0  0  0  0  0  0  0999 V2000
   -1.4711   -0.1223   -0.0379 C   0  0  0  0  0  0  0  0  0  0  0  0
   -2.8215   -0.1452    0.0640 N   0  0  0  0  0  0  0  0  0  0  0  0
   -3.9381   -0.1615    0.1484 N   0  0  0  0  0  0  0  0  0  0  0  0
   -0.7813    1.1019   -0.0057 C   0  0  0  0  0  0  0  0  0  0  0  0
    0.5655    1.1900   -0.1019 C   0  0  0  0  0  0  0  0  0  0  0  0
    1.3019   -0.0288   -0.2417 C   0  0  0  0  0  0  0  0  0  0  0  0
    2.6078    0.1164   -0.3292 O   0  0  0  0  0  0  0  0  0  0  0  0
    3.4826   -1.0262   -0.4711 C   0  0  0  0  0  0  0  0  0  0  0  0
    0.6252   -1.2804   -0.2774 C   0  0  0  0  0  0  0  0  0  0  0  0
   -0.7463   -1.3370   -0.1773 C   0  0  0  0  0  0  0  0  0  0  0  0
   -2.0330    2.9240    0.2158 H   0  0  0  0  0  0  0  0  0  0  0  0
    1.1065    2.1293   -0.0774 H   0  0  0  0  0  0  0  0  0  0  0  0
    4.4863   -0.6084   -0.5121 H   0  0  0  0  0  0  0  0  0  0  0  0
    3.2621   -1.5607   -1.3991 H   0  0  0  0  0  0  0  0  0  0  0  0
    3.3870   -1.6873    0.3944 H   0  0  0  0  0  0  0  0  0  0  0  0
    1.1832   -2.2018   -0.3838 H   0  0  0  0  0  0  0  0  0  0  0  0
   -1.2718   -2.2866   -0.2034 H   0  0  0  0  0  0  0  0  0  0  0  0
  1  4  1  0  0  0  0
  1  2  1  0  0  0  0
  2  3  1  0  0  0  0
  5 12  1  0  0  0  0
  5  4  2  0  0  0  0
  6  5  1  0  0  0  0
  7  6  1  0  0  0  0
  8  7  1  0  0  0  0
  8 15  1  0  0  0  0
  9  6  2  0  0  0  0
  9 10  1  0  0  0  0
 10  1  2  0  0  0  0
 13  8  1  0  0  0  0
 14  8  1  0  0  0  0
 16  9  1  0  0  0  0
 17 10  1  0  0  0  0
M  RAD  4   2   2   3   3   4   2  11   2
M  END
