Coordinates from ORCA-job 4-MeOPhN2+_B3LYPG-6-31G_dp-d09-49-n800
 OpenBabel11261919463D

 17 16  0  0  0  0  0  0  0  0999 V2000
   -1.4615   -0.1364   -0.0397 C   0  0  0  0  0  0  0  0  0  0  0  0
   -2.8123   -0.1575    0.0623 N   0  0  0  0  0  0  0  0  0  0  0  0
   -3.9288   -0.1723    0.1468 N   0  0  0  0  0  0  0  0  0  0  0  0
   -0.7667    1.0824   -0.0083 C   0  0  0  0  0  0  0  0  0  0  0  0
    0.5769    1.1776   -0.1037 C   0  0  0  0  0  0  0  0  0  0  0  0
    1.3144   -0.0428   -0.2437 C   0  0  0  0  0  0  0  0  0  0  0  0
    2.6198    0.1020   -0.3311 O   0  0  0  0  0  0  0  0  0  0  0  0
    3.4950   -1.0409   -0.4731 C   0  0  0  0  0  0  0  0  0  0  0  0
    0.6361   -1.2940   -0.2791 C   0  0  0  0  0  0  0  0  0  0  0  0
   -0.7351   -1.3514   -0.1791 C   0  0  0  0  0  0  0  0  0  0  0  0
   -2.2176    3.1480    0.2457 H   0  0  0  0  0  0  0  0  0  0  0  0
    1.1190    2.1171   -0.0795 H   0  0  0  0  0  0  0  0  0  0  0  0
    4.4986   -0.6229   -0.5140 H   0  0  0  0  0  0  0  0  0  0  0  0
    3.2742   -1.5752   -1.4011 H   0  0  0  0  0  0  0  0  0  0  0  0
    3.3991   -1.7018    0.3926 H   0  0  0  0  0  0  0  0  0  0  0  0
    1.1944   -2.2153   -0.3855 H   0  0  0  0  0  0  0  0  0  0  0  0
   -1.2606   -2.3014   -0.2053 H   0  0  0  0  0  0  0  0  0  0  0  0
  1  4  1  0  0  0  0
  1  2  1  0  0  0  0
  2  3  1  0  0  0  0
  5 12  1  0  0  0  0
  5  4  2  0  0  0  0
  6  5  1  0  0  0  0
  7  6  1  0  0  0  0
  8  7  1  0  0  0  0
  8 15  1  0  0  0  0
  9  6  2  0  0  0  0
  9 10  1  0  0  0  0
 10  1  2  0  0  0  0
 13  8  1  0  0  0  0
 14  8  1  0  0  0  0
 16  9  1  0  0  0  0
 17 10  1  0  0  0  0
M  RAD  4   2   2   3   3   4   2  11   2
M  END
