Coordinates from ORCA-job 4-MeOPhN2+_B3LYPG-6-31G_dp-d09-49-n800
 OpenBabel11261919463D

 17 16  0  0  0  0  0  0  0  0999 V2000
   -1.4228   -0.2994   -0.0531 C   0  0  0  0  0  0  0  0  0  0  0  0
   -2.7766   -0.3667    0.0460 N   0  0  0  0  0  0  0  0  0  0  0  0
   -3.8925   -0.4188    0.1278 N   0  0  0  0  0  0  0  0  0  0  0  0
   -0.7724    0.9411   -0.0158 C   0  0  0  0  0  0  0  0  0  0  0  0
    0.5689    1.0637   -0.1091 C   0  0  0  0  0  0  0  0  0  0  0  0
    1.3451   -0.1338   -0.2512 C   0  0  0  0  0  0  0  0  0  0  0  0
    2.6475    0.0458   -0.3360 O   0  0  0  0  0  0  0  0  0  0  0  0
    3.5517   -1.0730   -0.4803 C   0  0  0  0  0  0  0  0  0  0  0  0
    0.7015   -1.4039   -0.2916 C   0  0  0  0  0  0  0  0  0  0  0  0
   -0.6667   -1.4984   -0.1945 C   0  0  0  0  0  0  0  0  0  0  0  0
   -2.9175    4.8958    0.4141 H   0  0  0  0  0  0  0  0  0  0  0  0
    1.0974    2.0140   -0.0827 H   0  0  0  0  0  0  0  0  0  0  0  0
    4.5446   -0.6299   -0.5184 H   0  0  0  0  0  0  0  0  0  0  0  0
    3.3465   -1.6104   -1.4102 H   0  0  0  0  0  0  0  0  0  0  0  0
    3.4721   -1.7398    0.3827 H   0  0  0  0  0  0  0  0  0  0  0  0
    1.2861   -2.3087   -0.3991 H   0  0  0  0  0  0  0  0  0  0  0  0
   -1.1679   -2.4623   -0.2241 H   0  0  0  0  0  0  0  0  0  0  0  0
  1  4  1  0  0  0  0
  1  2  1  0  0  0  0
  2  3  1  0  0  0  0
  5 12  1  0  0  0  0
  5  4  2  0  0  0  0
  6  5  1  0  0  0  0
  7  6  1  0  0  0  0
  8  7  1  0  0  0  0
  8 15  1  0  0  0  0
  9  6  2  0  0  0  0
  9 10  1  0  0  0  0
 10  1  2  0  0  0  0
 13  8  1  0  0  0  0
 14  8  1  0  0  0  0
 16  9  1  0  0  0  0
 17 10  1  0  0  0  0
M  RAD  4   2   2   3   3   4   2  11   2
M  END
