Coordinates from ORCA-job 4-MeOPhN2+_B3LYPG-6-31G_dp-d09-49-n800
 OpenBabel11261919463D

 17 16  0  0  0  0  0  0  0  0999 V2000
   -1.4305   -0.1857   -0.0452 C   0  0  0  0  0  0  0  0  0  0  0  0
   -2.7835   -0.2158    0.0563 N   0  0  0  0  0  0  0  0  0  0  0  0
   -3.9000   -0.2392    0.1403 N   0  0  0  0  0  0  0  0  0  0  0  0
   -0.7406    1.0331   -0.0132 C   0  0  0  0  0  0  0  0  0  0  0  0
    0.6007    1.1321   -0.1080 C   0  0  0  0  0  0  0  0  0  0  0  0
    1.3456   -0.0863   -0.2485 C   0  0  0  0  0  0  0  0  0  0  0  0
    2.6505    0.0614   -0.3357 O   0  0  0  0  0  0  0  0  0  0  0  0
    3.5288   -1.0791   -0.4785 C   0  0  0  0  0  0  0  0  0  0  0  0
    0.6696   -1.3395   -0.2847 C   0  0  0  0  0  0  0  0  0  0  0  0
   -0.7006   -1.4010   -0.1851 C   0  0  0  0  0  0  0  0  0  0  0  0
   -2.7235    3.8881    0.3334 H   0  0  0  0  0  0  0  0  0  0  0  0
    1.1467    2.0716   -0.0841 H   0  0  0  0  0  0  0  0  0  0  0  0
    4.5313   -0.6586   -0.5191 H   0  0  0  0  0  0  0  0  0  0  0  0
    3.3092   -1.6132   -1.4069 H   0  0  0  0  0  0  0  0  0  0  0  0
    3.4344   -1.7409    0.3866 H   0  0  0  0  0  0  0  0  0  0  0  0
    1.2311   -2.2590   -0.3913 H   0  0  0  0  0  0  0  0  0  0  0  0
   -1.2243   -2.3527   -0.2118 H   0  0  0  0  0  0  0  0  0  0  0  0
  1  4  1  0  0  0  0
  1  2  1  0  0  0  0
  2  3  1  0  0  0  0
  5 12  1  0  0  0  0
  5  4  2  0  0  0  0
  6  5  1  0  0  0  0
  7  6  1  0  0  0  0
  8  7  1  0  0  0  0
  8 15  1  0  0  0  0
  9  6  2  0  0  0  0
  9 10  1  0  0  0  0
 10  1  2  0  0  0  0
 13  8  1  0  0  0  0
 14  8  1  0  0  0  0
 16  9  1  0  0  0  0
 17 10  1  0  0  0  0
M  RAD  4   2   2   3   3   4   2  11   2
M  END
