Coordinates from ORCA-job 4-MeOPhN2+_B3LYPG-6-31G_dp-d09-49-n800
 OpenBabel11261919463D

 17 16  0  0  0  0  0  0  0  0999 V2000
   -1.4220   -0.2873   -0.0523 C   0  0  0  0  0  0  0  0  0  0  0  0
   -2.7759   -0.3505    0.0471 N   0  0  0  0  0  0  0  0  0  0  0  0
   -3.8919   -0.3994    0.1294 N   0  0  0  0  0  0  0  0  0  0  0  0
   -0.7674    0.9509   -0.0155 C   0  0  0  0  0  0  0  0  0  0  0  0
    0.5742    1.0699   -0.1091 C   0  0  0  0  0  0  0  0  0  0  0  0
    1.3467   -0.1300   -0.2511 C   0  0  0  0  0  0  0  0  0  0  0  0
    2.6494    0.0456   -0.3361 O   0  0  0  0  0  0  0  0  0  0  0  0
    3.5504   -1.0758   -0.4804 C   0  0  0  0  0  0  0  0  0  0  0  0
    0.6992   -1.3982   -0.2911 C   0  0  0  0  0  0  0  0  0  0  0  0
   -0.6693   -1.4885   -0.1937 C   0  0  0  0  0  0  0  0  0  0  0  0
   -2.9180    4.8058    0.4079 H   0  0  0  0  0  0  0  0  0  0  0  0
    1.1053    2.0188   -0.0829 H   0  0  0  0  0  0  0  0  0  0  0  0
    4.5446   -0.6355   -0.5187 H   0  0  0  0  0  0  0  0  0  0  0  0
    3.3435   -1.6128   -1.4102 H   0  0  0  0  0  0  0  0  0  0  0  0
    3.4690   -1.7422    0.3828 H   0  0  0  0  0  0  0  0  0  0  0  0
    1.2809   -2.3048   -0.3986 H   0  0  0  0  0  0  0  0  0  0  0  0
   -1.1735   -2.4509   -0.2230 H   0  0  0  0  0  0  0  0  0  0  0  0
  1  4  1  0  0  0  0
  1  2  1  0  0  0  0
  2  3  1  0  0  0  0
  5 12  1  0  0  0  0
  5  4  2  0  0  0  0
  6  5  1  0  0  0  0
  7  6  1  0  0  0  0
  8  7  1  0  0  0  0
  8 15  1  0  0  0  0
  9  6  2  0  0  0  0
  9 10  1  0  0  0  0
 10  1  2  0  0  0  0
 13  8  1  0  0  0  0
 14  8  1  0  0  0  0
 16  9  1  0  0  0  0
 17 10  1  0  0  0  0
M  RAD  4   2   2   3   3   4   2  11   2
M  END
