Coordinates from ORCA-job 4-MeOPhN2+_B3LYPG-6-31G_dp-d09-49-n800
 OpenBabel11261919463D

 17 17  0  0  0  0  0  0  0  0999 V2000
   -1.4889   -0.0760   -0.0333 C   0  0  0  0  0  0  0  0  0  0  0  0
   -2.8408   -0.1148    0.0670 N   0  0  0  0  0  0  0  0  0  0  0  0
   -3.9581   -0.1427    0.1501 N   0  0  0  0  0  0  0  0  0  0  0  0
   -0.8286    1.1777    0.0032 C   0  0  0  0  0  0  0  0  0  0  0  0
    0.5336    1.2182   -0.0968 C   0  0  0  0  0  0  0  0  0  0  0  0
    1.2698    0.0068   -0.2359 C   0  0  0  0  0  0  0  0  0  0  0  0
    2.5775    0.1535   -0.3234 O   0  0  0  0  0  0  0  0  0  0  0  0
    3.4501   -0.9888   -0.4666 C   0  0  0  0  0  0  0  0  0  0  0  0
    0.5971   -1.2442   -0.2720 C   0  0  0  0  0  0  0  0  0  0  0  0
   -0.7749   -1.2924   -0.1716 C   0  0  0  0  0  0  0  0  0  0  0  0
   -1.5576    2.3186    0.1371 H   0  0  0  0  0  0  0  0  0  0  0  0
    1.0796    2.1540   -0.0733 H   0  0  0  0  0  0  0  0  0  0  0  0
    4.4547   -0.5732   -0.5082 H   0  0  0  0  0  0  0  0  0  0  0  0
    3.2291   -1.5235   -1.3946 H   0  0  0  0  0  0  0  0  0  0  0  0
    3.3553   -1.6514    0.3981 H   0  0  0  0  0  0  0  0  0  0  0  0
    1.1520   -2.1676   -0.3781 H   0  0  0  0  0  0  0  0  0  0  0  0
   -1.3047   -2.2387   -0.1972 H   0  0  0  0  0  0  0  0  0  0  0  0
  1  4  1  0  0  0  0
  1  2  1  0  0  0  0
  2  3  1  0  0  0  0
  4 11  1  0  0  0  0
  5 12  1  0  0  0  0
  5  4  2  0  0  0  0
  6  5  1  0  0  0  0
  7  6  1  0  0  0  0
  8  7  1  0  0  0  0
  8 15  1  0  0  0  0
  9  6  2  0  0  0  0
  9 10  1  0  0  0  0
 10  1  2  0  0  0  0
 13  8  1  0  0  0  0
 14  8  1  0  0  0  0
 16  9  1  0  0  0  0
 17 10  1  0  0  0  0
M  RAD  2   2   2   3   3
M  END
