Coordinates from ORCA-job 4-MeOPhN2+_B3LYPG-6-31G_dp-d09-49-n800
 OpenBabel11261919463D

 17 16  0  0  0  0  0  0  0  0999 V2000
   -1.4801   -0.1037   -0.0360 C   0  0  0  0  0  0  0  0  0  0  0  0
   -2.8306   -0.1322    0.0655 N   0  0  0  0  0  0  0  0  0  0  0  0
   -3.9475   -0.1526    0.1497 N   0  0  0  0  0  0  0  0  0  0  0  0
   -0.8012    1.1314   -0.0021 C   0  0  0  0  0  0  0  0  0  0  0  0
    0.5516    1.2033   -0.0997 C   0  0  0  0  0  0  0  0  0  0  0  0
    1.2873   -0.0127   -0.2393 C   0  0  0  0  0  0  0  0  0  0  0  0
    2.5940    0.1331   -0.3267 O   0  0  0  0  0  0  0  0  0  0  0  0
    3.4678   -1.0093   -0.4690 C   0  0  0  0  0  0  0  0  0  0  0  0
    0.6126   -1.2644   -0.2752 C   0  0  0  0  0  0  0  0  0  0  0  0
   -0.7590   -1.3186   -0.1750 C   0  0  0  0  0  0  0  0  0  0  0  0
   -1.8190    2.6607    0.1809 H   0  0  0  0  0  0  0  0  0  0  0  0
    1.0934    2.1414   -0.0754 H   0  0  0  0  0  0  0  0  0  0  0  0
    4.4719   -0.5925   -0.5100 H   0  0  0  0  0  0  0  0  0  0  0  0
    3.2473   -1.5440   -1.3970 H   0  0  0  0  0  0  0  0  0  0  0  0
    3.3725   -1.6711    0.3962 H   0  0  0  0  0  0  0  0  0  0  0  0
    1.1699   -2.1863   -0.3816 H   0  0  0  0  0  0  0  0  0  0  0  0
   -1.2856   -2.2672   -0.2010 H   0  0  0  0  0  0  0  0  0  0  0  0
  1  4  1  0  0  0  0
  1  2  1  0  0  0  0
  2  3  1  0  0  0  0
  5 12  1  0  0  0  0
  5  4  2  0  0  0  0
  6  5  1  0  0  0  0
  7  6  1  0  0  0  0
  8  7  1  0  0  0  0
  8 15  1  0  0  0  0
  9  6  2  0  0  0  0
  9 10  1  0  0  0  0
 10  1  2  0  0  0  0
 13  8  1  0  0  0  0
 14  8  1  0  0  0  0
 16  9  1  0  0  0  0
 17 10  1  0  0  0  0
M  RAD  4   2   2   3   3   4   2  11   2
M  END
