Coordinates from ORCA-job 4-MeOPhN2+_B3LYPG-6-31G_dp-d09-49-n800
 OpenBabel11261919463D

 17 16  0  0  0  0  0  0  0  0999 V2000
   -1.4339   -0.1772   -0.0445 C   0  0  0  0  0  0  0  0  0  0  0  0
   -2.7865   -0.2050    0.0573 N   0  0  0  0  0  0  0  0  0  0  0  0
   -3.9031   -0.2262    0.1413 N   0  0  0  0  0  0  0  0  0  0  0  0
   -0.7419    1.0406   -0.0128 C   0  0  0  0  0  0  0  0  0  0  0  0
    0.5995    1.1387   -0.1078 C   0  0  0  0  0  0  0  0  0  0  0  0
    1.3427   -0.0806   -0.2480 C   0  0  0  0  0  0  0  0  0  0  0  0
    2.6476    0.0659   -0.3353 O   0  0  0  0  0  0  0  0  0  0  0  0
    3.5249   -1.0755   -0.4779 C   0  0  0  0  0  0  0  0  0  0  0  0
    0.6653   -1.3331   -0.2839 C   0  0  0  0  0  0  0  0  0  0  0  0
   -0.7051   -1.3930   -0.1842 C   0  0  0  0  0  0  0  0  0  0  0  0
   -2.6690    3.7824    0.3227 H   0  0  0  0  0  0  0  0  0  0  0  0
    1.1457    2.0778   -0.0839 H   0  0  0  0  0  0  0  0  0  0  0  0
    4.5278   -0.6558   -0.5186 H   0  0  0  0  0  0  0  0  0  0  0  0
    3.3049   -1.6096   -1.4062 H   0  0  0  0  0  0  0  0  0  0  0  0
    3.4300   -1.7370    0.3875 H   0  0  0  0  0  0  0  0  0  0  0  0
    1.2257   -2.2532   -0.3904 H   0  0  0  0  0  0  0  0  0  0  0  0
   -1.2297   -2.3441   -0.2107 H   0  0  0  0  0  0  0  0  0  0  0  0
  1  4  1  0  0  0  0
  1  2  1  0  0  0  0
  2  3  1  0  0  0  0
  5 12  1  0  0  0  0
  5  4  2  0  0  0  0
  6  5  1  0  0  0  0
  7  6  1  0  0  0  0
  8  7  1  0  0  0  0
  8 15  1  0  0  0  0
  9  6  2  0  0  0  0
  9 10  1  0  0  0  0
 10  1  2  0  0  0  0
 13  8  1  0  0  0  0
 14  8  1  0  0  0  0
 16  9  1  0  0  0  0
 17 10  1  0  0  0  0
M  RAD  4   2   2   3   3   4   2  11   2
M  END
