Coordinates from ORCA-job 4-MeOPhN2+_B3LYPG-6-31G_dp-d09-49-n800
 OpenBabel11261919463D

 17 16  0  0  0  0  0  0  0  0999 V2000
   -1.4287   -0.1905   -0.0456 C   0  0  0  0  0  0  0  0  0  0  0  0
   -2.7818   -0.2222    0.0559 N   0  0  0  0  0  0  0  0  0  0  0  0
   -3.8984   -0.2468    0.1397 N   0  0  0  0  0  0  0  0  0  0  0  0
   -0.7406    1.0294   -0.0132 C   0  0  0  0  0  0  0  0  0  0  0  0
    0.6008    1.1281   -0.1082 C   0  0  0  0  0  0  0  0  0  0  0  0
    1.3468   -0.0895   -0.2488 C   0  0  0  0  0  0  0  0  0  0  0  0
    2.6516    0.0593   -0.3358 O   0  0  0  0  0  0  0  0  0  0  0  0
    3.5307   -1.0805   -0.4788 C   0  0  0  0  0  0  0  0  0  0  0  0
    0.6718   -1.3433   -0.2851 C   0  0  0  0  0  0  0  0  0  0  0  0
   -0.6983   -1.4055   -0.1856 C   0  0  0  0  0  0  0  0  0  0  0  0
   -2.7493    3.9453    0.3389 H   0  0  0  0  0  0  0  0  0  0  0  0
    1.1468    2.0677   -0.0842 H   0  0  0  0  0  0  0  0  0  0  0  0
    4.5330   -0.6593   -0.5193 H   0  0  0  0  0  0  0  0  0  0  0  0
    3.3116   -1.6147   -1.4073 H   0  0  0  0  0  0  0  0  0  0  0  0
    3.4369   -1.7426    0.3862 H   0  0  0  0  0  0  0  0  0  0  0  0
    1.2340   -2.2623   -0.3919 H   0  0  0  0  0  0  0  0  0  0  0  0
   -1.2216   -2.3574   -0.2124 H   0  0  0  0  0  0  0  0  0  0  0  0
  1  4  1  0  0  0  0
  1  2  1  0  0  0  0
  2  3  1  0  0  0  0
  5 12  1  0  0  0  0
  5  4  2  0  0  0  0
  6  5  1  0  0  0  0
  7  6  1  0  0  0  0
  8  7  1  0  0  0  0
  8 15  1  0  0  0  0
  9  6  2  0  0  0  0
  9 10  1  0  0  0  0
 10  1  2  0  0  0  0
 13  8  1  0  0  0  0
 14  8  1  0  0  0  0
 16  9  1  0  0  0  0
 17 10  1  0  0  0  0
M  RAD  4   2   2   3   3   4   2  11   2
M  END
