Coordinates from ORCA-job 4-MeOPhN2+_B3LYPG-6-31G_dp-d09-49-n800
 OpenBabel11261919463D

 17 16  0  0  0  0  0  0  0  0999 V2000
   -1.4810   -0.1015   -0.0358 C   0  0  0  0  0  0  0  0  0  0  0  0
   -2.8315   -0.1308    0.0657 N   0  0  0  0  0  0  0  0  0  0  0  0
   -3.9484   -0.1518    0.1498 N   0  0  0  0  0  0  0  0  0  0  0  0
   -0.8034    1.1349   -0.0017 C   0  0  0  0  0  0  0  0  0  0  0  0
    0.5501    1.2046   -0.0995 C   0  0  0  0  0  0  0  0  0  0  0  0
    1.2857   -0.0110   -0.2390 C   0  0  0  0  0  0  0  0  0  0  0  0
    2.5925    0.1348   -0.3264 O   0  0  0  0  0  0  0  0  0  0  0  0
    3.4662   -1.0076   -0.4687 C   0  0  0  0  0  0  0  0  0  0  0  0
    0.6113   -1.2627   -0.2750 C   0  0  0  0  0  0  0  0  0  0  0  0
   -0.7604   -1.3165   -0.1747 C   0  0  0  0  0  0  0  0  0  0  0  0
   -1.7967    2.6327    0.1773 H   0  0  0  0  0  0  0  0  0  0  0  0
    1.0921    2.1426   -0.0753 H   0  0  0  0  0  0  0  0  0  0  0  0
    4.4704   -0.5909   -0.5098 H   0  0  0  0  0  0  0  0  0  0  0  0
    3.2458   -1.5423   -1.3967 H   0  0  0  0  0  0  0  0  0  0  0  0
    3.3709   -1.6694    0.3965 H   0  0  0  0  0  0  0  0  0  0  0  0
    1.1684   -2.1847   -0.3813 H   0  0  0  0  0  0  0  0  0  0  0  0
   -1.2871   -2.2650   -0.2008 H   0  0  0  0  0  0  0  0  0  0  0  0
  1  4  1  0  0  0  0
  1  2  1  0  0  0  0
  2  3  1  0  0  0  0
  5 12  1  0  0  0  0
  5  4  2  0  0  0  0
  6  5  1  0  0  0  0
  7  6  1  0  0  0  0
  8  7  1  0  0  0  0
  8 15  1  0  0  0  0
  9  6  2  0  0  0  0
  9 10  1  0  0  0  0
 10  1  2  0  0  0  0
 13  8  1  0  0  0  0
 14  8  1  0  0  0  0
 16  9  1  0  0  0  0
 17 10  1  0  0  0  0
M  RAD  4   2   2   3   3   4   2  11   2
M  END
