Coordinates from ORCA-job 4-MeOPhN2+_B3LYPG-6-31G_dp-d09-49-n800
 OpenBabel11261919463D

 17 16  0  0  0  0  0  0  0  0999 V2000
   -1.4718   -0.1211   -0.0378 C   0  0  0  0  0  0  0  0  0  0  0  0
   -2.8221   -0.1443    0.0641 N   0  0  0  0  0  0  0  0  0  0  0  0
   -3.9387   -0.1607    0.1485 N   0  0  0  0  0  0  0  0  0  0  0  0
   -0.7826    1.1036   -0.0055 C   0  0  0  0  0  0  0  0  0  0  0  0
    0.5645    1.1909   -0.1017 C   0  0  0  0  0  0  0  0  0  0  0  0
    1.3009   -0.0277   -0.2416 C   0  0  0  0  0  0  0  0  0  0  0  0
    2.6069    0.1175   -0.3290 O   0  0  0  0  0  0  0  0  0  0  0  0
    3.4816   -1.0250   -0.4710 C   0  0  0  0  0  0  0  0  0  0  0  0
    0.6243   -1.2793   -0.2773 C   0  0  0  0  0  0  0  0  0  0  0  0
   -0.7471   -1.3358   -0.1771 C   0  0  0  0  0  0  0  0  0  0  0  0
   -2.0185    2.9063    0.2134 H   0  0  0  0  0  0  0  0  0  0  0  0
    1.1056    2.1302   -0.0773 H   0  0  0  0  0  0  0  0  0  0  0  0
    4.4853   -0.6073   -0.5120 H   0  0  0  0  0  0  0  0  0  0  0  0
    3.2611   -1.5596   -1.3990 H   0  0  0  0  0  0  0  0  0  0  0  0
    3.3861   -1.6862    0.3946 H   0  0  0  0  0  0  0  0  0  0  0  0
    1.1823   -2.2007   -0.3836 H   0  0  0  0  0  0  0  0  0  0  0  0
   -1.2727   -2.2853   -0.2033 H   0  0  0  0  0  0  0  0  0  0  0  0
  1  4  1  0  0  0  0
  1  2  1  0  0  0  0
  2  3  1  0  0  0  0
  5 12  1  0  0  0  0
  5  4  2  0  0  0  0
  6  5  1  0  0  0  0
  7  6  1  0  0  0  0
  8  7  1  0  0  0  0
  8 15  1  0  0  0  0
  9  6  2  0  0  0  0
  9 10  1  0  0  0  0
 10  1  2  0  0  0  0
 13  8  1  0  0  0  0
 14  8  1  0  0  0  0
 16  9  1  0  0  0  0
 17 10  1  0  0  0  0
M  RAD  4   2   2   3   3   4   2  11   2
M  END
