Coordinates from ORCA-job 4-MeOPhN2+_B3LYPG-6-31G_dp-d09-49-n800
 OpenBabel11261919463D

 17 16  0  0  0  0  0  0  0  0999 V2000
   -1.4755   -0.1141   -0.0370 C   0  0  0  0  0  0  0  0  0  0  0  0
   -2.8258   -0.1392    0.0647 N   0  0  0  0  0  0  0  0  0  0  0  0
   -3.9425   -0.1570    0.1490 N   0  0  0  0  0  0  0  0  0  0  0  0
   -0.7900    1.1144   -0.0041 C   0  0  0  0  0  0  0  0  0  0  0  0
    0.5592    1.1962   -0.1008 C   0  0  0  0  0  0  0  0  0  0  0  0
    1.2952   -0.0214   -0.2406 C   0  0  0  0  0  0  0  0  0  0  0  0
    2.6014    0.1240   -0.3280 O   0  0  0  0  0  0  0  0  0  0  0  0
    3.4758   -1.0184   -0.4702 C   0  0  0  0  0  0  0  0  0  0  0  0
    0.6194   -1.2731   -0.2764 C   0  0  0  0  0  0  0  0  0  0  0  0
   -0.7521   -1.3288   -0.1762 C   0  0  0  0  0  0  0  0  0  0  0  0
   -1.9350    2.8043    0.1996 H   0  0  0  0  0  0  0  0  0  0  0  0
    1.1003    2.1351   -0.0764 H   0  0  0  0  0  0  0  0  0  0  0  0
    4.4797   -0.6010   -0.5112 H   0  0  0  0  0  0  0  0  0  0  0  0
    3.2553   -1.5530   -1.3982 H   0  0  0  0  0  0  0  0  0  0  0  0
    3.3804   -1.6799    0.3952 H   0  0  0  0  0  0  0  0  0  0  0  0
    1.1772   -2.1947   -0.3828 H   0  0  0  0  0  0  0  0  0  0  0  0
   -1.2780   -2.2781   -0.2024 H   0  0  0  0  0  0  0  0  0  0  0  0
  1  4  1  0  0  0  0
  1  2  1  0  0  0  0
  2  3  1  0  0  0  0
  5 12  1  0  0  0  0
  5  4  2  0  0  0  0
  6  5  1  0  0  0  0
  7  6  1  0  0  0  0
  8  7  1  0  0  0  0
  8 15  1  0  0  0  0
  9  6  2  0  0  0  0
  9 10  1  0  0  0  0
 10  1  2  0  0  0  0
 13  8  1  0  0  0  0
 14  8  1  0  0  0  0
 16  9  1  0  0  0  0
 17 10  1  0  0  0  0
M  RAD  4   2   2   3   3   4   2  11   2
M  END
