Coordinates from ORCA-job 4-MeOPhN2+_B3LYPG-6-31G_dp-d09-49-n800
 OpenBabel11261919463D

 17 16  0  0  0  0  0  0  0  0999 V2000
   -1.4247   -0.2063   -0.0469 C   0  0  0  0  0  0  0  0  0  0  0  0
   -2.7781   -0.2427    0.0544 N   0  0  0  0  0  0  0  0  0  0  0  0
   -3.8947   -0.2712    0.1381 N   0  0  0  0  0  0  0  0  0  0  0  0
   -0.7417    1.0165   -0.0137 C   0  0  0  0  0  0  0  0  0  0  0  0
    0.6000    1.1169   -0.1086 C   0  0  0  0  0  0  0  0  0  0  0  0
    1.3496   -0.0983   -0.2495 C   0  0  0  0  0  0  0  0  0  0  0  0
    2.6543    0.0538   -0.3363 O   0  0  0  0  0  0  0  0  0  0  0  0
    3.5360   -1.0838   -0.4795 C   0  0  0  0  0  0  0  0  0  0  0  0
    0.6782   -1.3541   -0.2864 C   0  0  0  0  0  0  0  0  0  0  0  0
   -0.6917   -1.4197   -0.1872 C   0  0  0  0  0  0  0  0  0  0  0  0
   -2.8165    4.1166    0.3548 H   0  0  0  0  0  0  0  0  0  0  0  0
    1.1448    2.0574   -0.0843 H   0  0  0  0  0  0  0  0  0  0  0  0
    4.5374   -0.6603   -0.5196 H   0  0  0  0  0  0  0  0  0  0  0  0
    3.3185   -1.6182   -1.4082 H   0  0  0  0  0  0  0  0  0  0  0  0
    3.4437   -1.7466    0.3852 H   0  0  0  0  0  0  0  0  0  0  0  0
    1.2428   -2.2715   -0.3934 H   0  0  0  0  0  0  0  0  0  0  0  0
   -1.2127   -2.3730   -0.2144 H   0  0  0  0  0  0  0  0  0  0  0  0
  1  4  1  0  0  0  0
  1  2  1  0  0  0  0
  2  3  1  0  0  0  0
  5 12  1  0  0  0  0
  5  4  2  0  0  0  0
  6  5  1  0  0  0  0
  7  6  1  0  0  0  0
  8  7  1  0  0  0  0
  8 15  1  0  0  0  0
  9  6  2  0  0  0  0
  9 10  1  0  0  0  0
 10  1  2  0  0  0  0
 13  8  1  0  0  0  0
 14  8  1  0  0  0  0
 16  9  1  0  0  0  0
 17 10  1  0  0  0  0
M  RAD  4   2   2   3   3   4   2  11   2
M  END
