Coordinates from ORCA-job 4-MeOPhN2+_B3LYPG-6-31G_dp-d09-49-n800
 OpenBabel11261919463D

 17 16  0  0  0  0  0  0  0  0999 V2000
   -1.4214   -0.2332   -0.0490 C   0  0  0  0  0  0  0  0  0  0  0  0
   -2.7752   -0.2782    0.0518 N   0  0  0  0  0  0  0  0  0  0  0  0
   -3.8916   -0.3132    0.1350 N   0  0  0  0  0  0  0  0  0  0  0  0
   -0.7477    0.9947   -0.0148 C   0  0  0  0  0  0  0  0  0  0  0  0
    0.5942    1.0997   -0.1093 C   0  0  0  0  0  0  0  0  0  0  0  0
    1.3509   -0.1108   -0.2504 C   0  0  0  0  0  0  0  0  0  0  0  0
    2.6551    0.0483   -0.3367 O   0  0  0  0  0  0  0  0  0  0  0  0
    3.5425   -1.0844   -0.4801 C   0  0  0  0  0  0  0  0  0  0  0  0
    0.6867   -1.3704   -0.2882 C   0  0  0  0  0  0  0  0  0  0  0  0
   -0.6828   -1.4433   -0.1895 C   0  0  0  0  0  0  0  0  0  0  0  0
   -2.8822    4.3713    0.3772 H   0  0  0  0  0  0  0  0  0  0  0  0
    1.1355    2.0425   -0.0846 H   0  0  0  0  0  0  0  0  0  0  0  0
    4.5418   -0.6560   -0.5197 H   0  0  0  0  0  0  0  0  0  0  0  0
    3.3282   -1.6198   -1.4090 H   0  0  0  0  0  0  0  0  0  0  0  0
    3.4534   -1.7482    0.3842 H   0  0  0  0  0  0  0  0  0  0  0  0
    1.2565   -2.2846   -0.3953 H   0  0  0  0  0  0  0  0  0  0  0  0
   -1.1990   -2.3992   -0.2173 H   0  0  0  0  0  0  0  0  0  0  0  0
  1  4  1  0  0  0  0
  1  2  1  0  0  0  0
  2  3  1  0  0  0  0
  5 12  1  0  0  0  0
  5  4  2  0  0  0  0
  6  5  1  0  0  0  0
  7  6  1  0  0  0  0
  8  7  1  0  0  0  0
  8 15  1  0  0  0  0
  9  6  2  0  0  0  0
  9 10  1  0  0  0  0
 10  1  2  0  0  0  0
 13  8  1  0  0  0  0
 14  8  1  0  0  0  0
 16  9  1  0  0  0  0
 17 10  1  0  0  0  0
M  RAD  4   2   2   3   3   4   2  11   2
M  END
