Coordinates from ORCA-job 4-MeOPhN2+_B3LYPG-6-31G_dp-d09-49-n800
 OpenBabel11261919463D

 17 16  0  0  0  0  0  0  0  0999 V2000
   -1.4477   -0.1532   -0.0420 C   0  0  0  0  0  0  0  0  0  0  0  0
   -2.7993   -0.1752    0.0600 N   0  0  0  0  0  0  0  0  0  0  0  0
   -3.9158   -0.1911    0.1444 N   0  0  0  0  0  0  0  0  0  0  0  0
   -0.7511    1.0629   -0.0111 C   0  0  0  0  0  0  0  0  0  0  0  0
    0.5905    1.1605   -0.1061 C   0  0  0  0  0  0  0  0  0  0  0  0
    1.3297   -0.0605   -0.2460 C   0  0  0  0  0  0  0  0  0  0  0  0
    2.6347    0.0837   -0.3334 O   0  0  0  0  0  0  0  0  0  0  0  0
    3.5101   -1.0593   -0.4755 C   0  0  0  0  0  0  0  0  0  0  0  0
    0.6502   -1.3116   -0.2813 C   0  0  0  0  0  0  0  0  0  0  0  0
   -0.7207   -1.3692   -0.1814 C   0  0  0  0  0  0  0  0  0  0  0  0
   -2.4493    3.4354    0.2837 H   0  0  0  0  0  0  0  0  0  0  0  0
    1.1352    2.0996   -0.0823 H   0  0  0  0  0  0  0  0  0  0  0  0
    4.5136   -0.6412   -0.5164 H   0  0  0  0  0  0  0  0  0  0  0  0
    3.2891   -1.5934   -1.4035 H   0  0  0  0  0  0  0  0  0  0  0  0
    3.4140   -1.7201    0.3903 H   0  0  0  0  0  0  0  0  0  0  0  0
    1.2086   -2.2329   -0.3876 H   0  0  0  0  0  0  0  0  0  0  0  0
   -1.2467   -2.3193   -0.2075 H   0  0  0  0  0  0  0  0  0  0  0  0
  1  4  1  0  0  0  0
  1  2  1  0  0  0  0
  2  3  1  0  0  0  0
  5 12  1  0  0  0  0
  5  4  2  0  0  0  0
  6  5  1  0  0  0  0
  7  6  1  0  0  0  0
  8  7  1  0  0  0  0
  8 15  1  0  0  0  0
  9  6  2  0  0  0  0
  9 10  1  0  0  0  0
 10  1  2  0  0  0  0
 13  8  1  0  0  0  0
 14  8  1  0  0  0  0
 16  9  1  0  0  0  0
 17 10  1  0  0  0  0
M  RAD  4   2   2   3   3   4   2  11   2
M  END
