Coordinates from ORCA-job 4-MeOPhN2+_B3LYPG-6-31G_dp-d09-49-n800
 OpenBabel11261919463D

 17 16  0  0  0  0  0  0  0  0999 V2000
   -1.4597   -0.1388   -0.0400 C   0  0  0  0  0  0  0  0  0  0  0  0
   -2.8106   -0.1598    0.0620 N   0  0  0  0  0  0  0  0  0  0  0  0
   -3.9270   -0.1745    0.1465 N   0  0  0  0  0  0  0  0  0  0  0  0
   -0.7643    1.0794   -0.0087 C   0  0  0  0  0  0  0  0  0  0  0  0
    0.5788    1.1753   -0.1041 C   0  0  0  0  0  0  0  0  0  0  0  0
    1.3166   -0.0452   -0.2440 C   0  0  0  0  0  0  0  0  0  0  0  0
    2.6219    0.0994   -0.3314 O   0  0  0  0  0  0  0  0  0  0  0  0
    3.4971   -1.0434   -0.4734 C   0  0  0  0  0  0  0  0  0  0  0  0
    0.6381   -1.2964   -0.2794 C   0  0  0  0  0  0  0  0  0  0  0  0
   -0.7331   -1.3539   -0.1794 C   0  0  0  0  0  0  0  0  0  0  0  0
   -2.2499    3.1876    0.2510 H   0  0  0  0  0  0  0  0  0  0  0  0
    1.1212    2.1148   -0.0799 H   0  0  0  0  0  0  0  0  0  0  0  0
    4.5007   -0.6254   -0.5143 H   0  0  0  0  0  0  0  0  0  0  0  0
    3.2763   -1.5777   -1.4014 H   0  0  0  0  0  0  0  0  0  0  0  0
    3.4012   -1.7043    0.3923 H   0  0  0  0  0  0  0  0  0  0  0  0
    1.1963   -2.2177   -0.3858 H   0  0  0  0  0  0  0  0  0  0  0  0
   -1.2587   -2.3039   -0.2056 H   0  0  0  0  0  0  0  0  0  0  0  0
  1  4  1  0  0  0  0
  1  2  1  0  0  0  0
  2  3  1  0  0  0  0
  5 12  1  0  0  0  0
  5  4  2  0  0  0  0
  6  5  1  0  0  0  0
  7  6  1  0  0  0  0
  8  7  1  0  0  0  0
  8 15  1  0  0  0  0
  9  6  2  0  0  0  0
  9 10  1  0  0  0  0
 10  1  2  0  0  0  0
 13  8  1  0  0  0  0
 14  8  1  0  0  0  0
 16  9  1  0  0  0  0
 17 10  1  0  0  0  0
M  RAD  4   2   2   3   3   4   2  11   2
M  END
