Coordinates from ORCA-job 4-MeOPhN2+_B3LYPG-6-31G_dp-d09-49-n800
 OpenBabel11261919463D

 17 17  0  0  0  0  0  0  0  0999 V2000
   -1.4896   -0.0736   -0.0331 C   0  0  0  0  0  0  0  0  0  0  0  0
   -2.8416   -0.1132    0.0671 N   0  0  0  0  0  0  0  0  0  0  0  0
   -3.9589   -0.1416    0.1502 N   0  0  0  0  0  0  0  0  0  0  0  0
   -0.8308    1.1816    0.0037 C   0  0  0  0  0  0  0  0  0  0  0  0
    0.5322    1.2194   -0.0966 C   0  0  0  0  0  0  0  0  0  0  0  0
    1.2685    0.0084   -0.2357 C   0  0  0  0  0  0  0  0  0  0  0  0
    2.5762    0.1551   -0.3232 O   0  0  0  0  0  0  0  0  0  0  0  0
    3.4487   -0.9871   -0.4664 C   0  0  0  0  0  0  0  0  0  0  0  0
    0.5958   -1.2425   -0.2717 C   0  0  0  0  0  0  0  0  0  0  0  0
   -0.7762   -1.2902   -0.1713 C   0  0  0  0  0  0  0  0  0  0  0  0
   -1.5370    2.2898    0.1336 H   0  0  0  0  0  0  0  0  0  0  0  0
    1.0785    2.1550   -0.0731 H   0  0  0  0  0  0  0  0  0  0  0  0
    4.4534   -0.5716   -0.5080 H   0  0  0  0  0  0  0  0  0  0  0  0
    3.2277   -1.5218   -1.3944 H   0  0  0  0  0  0  0  0  0  0  0  0
    3.3539   -1.6499    0.3983 H   0  0  0  0  0  0  0  0  0  0  0  0
    1.1505   -2.1661   -0.3778 H   0  0  0  0  0  0  0  0  0  0  0  0
   -1.3064   -2.2363   -0.1969 H   0  0  0  0  0  0  0  0  0  0  0  0
  1  4  1  0  0  0  0
  1  2  1  0  0  0  0
  2  3  1  0  0  0  0
  4 11  1  0  0  0  0
  5 12  1  0  0  0  0
  5  4  2  0  0  0  0
  6  5  1  0  0  0  0
  7  6  1  0  0  0  0
  8  7  1  0  0  0  0
  8 15  1  0  0  0  0
  9  6  2  0  0  0  0
  9 10  1  0  0  0  0
 10  1  2  0  0  0  0
 13  8  1  0  0  0  0
 14  8  1  0  0  0  0
 16  9  1  0  0  0  0
 17 10  1  0  0  0  0
M  RAD  2   2   2   3   3
M  END
