Coordinates from ORCA-job 4-MeOPhN2+_B3LYPG-6-31G_dp-d09-49-n800
 OpenBabel11261919463D

 17 16  0  0  0  0  0  0  0  0999 V2000
   -1.4410   -0.1639   -0.0432 C   0  0  0  0  0  0  0  0  0  0  0  0
   -2.7931   -0.1882    0.0587 N   0  0  0  0  0  0  0  0  0  0  0  0
   -3.9097   -0.2063    0.1430 N   0  0  0  0  0  0  0  0  0  0  0  0
   -0.7461    1.0526   -0.0120 C   0  0  0  0  0  0  0  0  0  0  0  0
    0.5953    1.1505   -0.1070 C   0  0  0  0  0  0  0  0  0  0  0  0
    1.3362   -0.0700   -0.2470 C   0  0  0  0  0  0  0  0  0  0  0  0
    2.6412    0.0751   -0.3343 O   0  0  0  0  0  0  0  0  0  0  0  0
    3.5173   -1.0673   -0.4766 C   0  0  0  0  0  0  0  0  0  0  0  0
    0.6573   -1.3216   -0.2825 C   0  0  0  0  0  0  0  0  0  0  0  0
   -0.7133   -1.3799   -0.1826 C   0  0  0  0  0  0  0  0  0  0  0  0
   -2.5564    3.5961    0.3024 H   0  0  0  0  0  0  0  0  0  0  0  0
    1.1409    2.0895   -0.0832 H   0  0  0  0  0  0  0  0  0  0  0  0
    4.5206   -0.6486   -0.5175 H   0  0  0  0  0  0  0  0  0  0  0  0
    3.2966   -1.6014   -1.4048 H   0  0  0  0  0  0  0  0  0  0  0  0
    3.4217   -1.7284    0.3890 H   0  0  0  0  0  0  0  0  0  0  0  0
    1.2164   -2.2424   -0.3888 H   0  0  0  0  0  0  0  0  0  0  0  0
   -1.2389   -2.3304   -0.2089 H   0  0  0  0  0  0  0  0  0  0  0  0
  1  4  1  0  0  0  0
  1  2  1  0  0  0  0
  2  3  1  0  0  0  0
  5 12  1  0  0  0  0
  5  4  2  0  0  0  0
  6  5  1  0  0  0  0
  7  6  1  0  0  0  0
  8  7  1  0  0  0  0
  8 15  1  0  0  0  0
  9  6  2  0  0  0  0
  9 10  1  0  0  0  0
 10  1  2  0  0  0  0
 13  8  1  0  0  0  0
 14  8  1  0  0  0  0
 16  9  1  0  0  0  0
 17 10  1  0  0  0  0
M  RAD  4   2   2   3   3   4   2  11   2
M  END
