Coordinates from ORCA-job 4-MeOPhN2+_B3LYPG-6-31G_dp-d09-49-n800
 OpenBabel11261919463D

 17 16  0  0  0  0  0  0  0  0999 V2000
   -1.4258   -0.2010   -0.0464 C   0  0  0  0  0  0  0  0  0  0  0  0
   -2.7791   -0.2359    0.0549 N   0  0  0  0  0  0  0  0  0  0  0  0
   -3.8957   -0.2631    0.1385 N   0  0  0  0  0  0  0  0  0  0  0  0
   -0.7412    1.0209   -0.0135 C   0  0  0  0  0  0  0  0  0  0  0  0
    0.6005    1.1204   -0.1084 C   0  0  0  0  0  0  0  0  0  0  0  0
    1.3488   -0.0956   -0.2492 C   0  0  0  0  0  0  0  0  0  0  0  0
    2.6536    0.0554   -0.3361 O   0  0  0  0  0  0  0  0  0  0  0  0
    3.5344   -1.0829   -0.4793 C   0  0  0  0  0  0  0  0  0  0  0  0
    0.6762   -1.3507   -0.2860 C   0  0  0  0  0  0  0  0  0  0  0  0
   -0.6938   -1.4150   -0.1867 C   0  0  0  0  0  0  0  0  0  0  0  0
   -2.7969    4.0618    0.3498 H   0  0  0  0  0  0  0  0  0  0  0  0
    1.1458    2.0605   -0.0842 H   0  0  0  0  0  0  0  0  0  0  0  0
    4.5361   -0.6602   -0.5196 H   0  0  0  0  0  0  0  0  0  0  0  0
    3.3163   -1.6173   -1.4080 H   0  0  0  0  0  0  0  0  0  0  0  0
    3.4416   -1.7455    0.3855 H   0  0  0  0  0  0  0  0  0  0  0  0
    1.2400   -2.2687   -0.3929 H   0  0  0  0  0  0  0  0  0  0  0  0
   -1.2157   -2.3678   -0.2137 H   0  0  0  0  0  0  0  0  0  0  0  0
  1  4  1  0  0  0  0
  1  2  1  0  0  0  0
  2  3  1  0  0  0  0
  5 12  1  0  0  0  0
  5  4  2  0  0  0  0
  6  5  1  0  0  0  0
  7  6  1  0  0  0  0
  8  7  1  0  0  0  0
  8 15  1  0  0  0  0
  9  6  2  0  0  0  0
  9 10  1  0  0  0  0
 10  1  2  0  0  0  0
 13  8  1  0  0  0  0
 14  8  1  0  0  0  0
 16  9  1  0  0  0  0
 17 10  1  0  0  0  0
M  RAD  4   2   2   3   3   4   2  11   2
M  END
