Coordinates from ORCA-job 4-MeOPhN2+_B3LYPG-6-31G_dp-d09-49-n800
 OpenBabel11261919463D

 17 16  0  0  0  0  0  0  0  0999 V2000
   -1.4694   -0.1251   -0.0383 C   0  0  0  0  0  0  0  0  0  0  0  0
   -2.8198   -0.1475    0.0637 N   0  0  0  0  0  0  0  0  0  0  0  0
   -3.9364   -0.1633    0.1481 N   0  0  0  0  0  0  0  0  0  0  0  0
   -0.7784    1.0978   -0.0063 C   0  0  0  0  0  0  0  0  0  0  0  0
    0.5677    1.1877   -0.1023 C   0  0  0  0  0  0  0  0  0  0  0  0
    1.3043   -0.0315   -0.2421 C   0  0  0  0  0  0  0  0  0  0  0  0
    2.6101    0.1137   -0.3296 O   0  0  0  0  0  0  0  0  0  0  0  0
    3.4850   -1.0289   -0.4715 C   0  0  0  0  0  0  0  0  0  0  0  0
    0.6272   -1.2830   -0.2777 C   0  0  0  0  0  0  0  0  0  0  0  0
   -0.7442   -1.3398   -0.1776 C   0  0  0  0  0  0  0  0  0  0  0  0
   -2.0679    2.9664    0.2216 H   0  0  0  0  0  0  0  0  0  0  0  0
    1.1088    2.1271   -0.0778 H   0  0  0  0  0  0  0  0  0  0  0  0
    4.4886   -0.6111   -0.5125 H   0  0  0  0  0  0  0  0  0  0  0  0
    3.2644   -1.5635   -1.3995 H   0  0  0  0  0  0  0  0  0  0  0  0
    3.3893   -1.6900    0.3941 H   0  0  0  0  0  0  0  0  0  0  0  0
    1.1853   -2.2043   -0.3841 H   0  0  0  0  0  0  0  0  0  0  0  0
   -1.2697   -2.2895   -0.2038 H   0  0  0  0  0  0  0  0  0  0  0  0
  1  4  1  0  0  0  0
  1  2  1  0  0  0  0
  2  3  1  0  0  0  0
  5 12  1  0  0  0  0
  5  4  2  0  0  0  0
  6  5  1  0  0  0  0
  7  6  1  0  0  0  0
  8  7  1  0  0  0  0
  8 15  1  0  0  0  0
  9  6  2  0  0  0  0
  9 10  1  0  0  0  0
 10  1  2  0  0  0  0
 13  8  1  0  0  0  0
 14  8  1  0  0  0  0
 16  9  1  0  0  0  0
 17 10  1  0  0  0  0
M  RAD  4   2   2   3   3   4   2  11   2
M  END
