Coordinates from ORCA-job 4-MeOPhN2+_B3LYPG-6-31G_dp-d09-49-n800
 OpenBabel11261919463D

 17 16  0  0  0  0  0  0  0  0999 V2000
   -1.4279   -0.1935   -0.0457 C   0  0  0  0  0  0  0  0  0  0  0  0
   -2.7810   -0.2261    0.0558 N   0  0  0  0  0  0  0  0  0  0  0  0
   -3.8977   -0.2514    0.1389 N   0  0  0  0  0  0  0  0  0  0  0  0
   -0.7405    1.0268   -0.0133 C   0  0  0  0  0  0  0  0  0  0  0  0
    0.6011    1.1261   -0.1082 C   0  0  0  0  0  0  0  0  0  0  0  0
    1.3476   -0.0912   -0.2489 C   0  0  0  0  0  0  0  0  0  0  0  0
    2.6525    0.0580   -0.3360 O   0  0  0  0  0  0  0  0  0  0  0  0
    3.5318   -1.0815   -0.4790 C   0  0  0  0  0  0  0  0  0  0  0  0
    0.6732   -1.3453   -0.2854 C   0  0  0  0  0  0  0  0  0  0  0  0
   -0.6969   -1.4082   -0.1858 C   0  0  0  0  0  0  0  0  0  0  0  0
   -2.7653    3.9801    0.3423 H   0  0  0  0  0  0  0  0  0  0  0  0
    1.1468    2.0659   -0.0842 H   0  0  0  0  0  0  0  0  0  0  0  0
    4.5340   -0.6601   -0.5195 H   0  0  0  0  0  0  0  0  0  0  0  0
    3.3129   -1.6157   -1.4076 H   0  0  0  0  0  0  0  0  0  0  0  0
    3.4382   -1.7437    0.3859 H   0  0  0  0  0  0  0  0  0  0  0  0
    1.2358   -2.2641   -0.3921 H   0  0  0  0  0  0  0  0  0  0  0  0
   -1.2196   -2.3605   -0.2127 H   0  0  0  0  0  0  0  0  0  0  0  0
  1  4  1  0  0  0  0
  1  2  1  0  0  0  0
  2  3  1  0  0  0  0
  5 12  1  0  0  0  0
  5  4  2  0  0  0  0
  6  5  1  0  0  0  0
  7  6  1  0  0  0  0
  8  7  1  0  0  0  0
  8 15  1  0  0  0  0
  9  6  2  0  0  0  0
  9 10  1  0  0  0  0
 10  1  2  0  0  0  0
 13  8  1  0  0  0  0
 14  8  1  0  0  0  0
 16  9  1  0  0  0  0
 17 10  1  0  0  0  0
M  RAD  4   2   2   3   3   4   2  11   2
M  END
