Coordinates from ORCA-job 4-MeOPhN2+_B3LYPG-6-31G_dp-d09-49-n800
 OpenBabel11261919463D

 17 16  0  0  0  0  0  0  0  0999 V2000
   -1.4551   -0.1439   -0.0407 C   0  0  0  0  0  0  0  0  0  0  0  0
   -2.8063   -0.1648    0.0613 N   0  0  0  0  0  0  0  0  0  0  0  0
   -3.9227   -0.1795    0.1458 N   0  0  0  0  0  0  0  0  0  0  0  0
   -0.7586    1.0727   -0.0097 C   0  0  0  0  0  0  0  0  0  0  0  0
    0.5838    1.1700   -0.1049 C   0  0  0  0  0  0  0  0  0  0  0  0
    1.3219   -0.0510   -0.2448 C   0  0  0  0  0  0  0  0  0  0  0  0
    2.6271    0.0933   -0.3322 O   0  0  0  0  0  0  0  0  0  0  0  0
    3.5022   -1.0498   -0.4742 C   0  0  0  0  0  0  0  0  0  0  0  0
    0.6427   -1.3020   -0.2801 C   0  0  0  0  0  0  0  0  0  0  0  0
   -0.7284   -1.3595   -0.1801 C   0  0  0  0  0  0  0  0  0  0  0  0
   -2.3286    3.2798    0.2635 H   0  0  0  0  0  0  0  0  0  0  0  0
    1.1270    2.1093   -0.0808 H   0  0  0  0  0  0  0  0  0  0  0  0
    4.5058   -0.6319   -0.5151 H   0  0  0  0  0  0  0  0  0  0  0  0
    3.2812   -1.5839   -1.4022 H   0  0  0  0  0  0  0  0  0  0  0  0
    3.4061   -1.7106    0.3915 H   0  0  0  0  0  0  0  0  0  0  0  0
    1.2009   -2.2234   -0.3865 H   0  0  0  0  0  0  0  0  0  0  0  0
   -1.2541   -2.3095   -0.2063 H   0  0  0  0  0  0  0  0  0  0  0  0
  1  4  1  0  0  0  0
  1  2  1  0  0  0  0
  2  3  1  0  0  0  0
  5 12  1  0  0  0  0
  5  4  2  0  0  0  0
  6  5  1  0  0  0  0
  7  6  1  0  0  0  0
  8  7  1  0  0  0  0
  8 15  1  0  0  0  0
  9  6  2  0  0  0  0
  9 10  1  0  0  0  0
 10  1  2  0  0  0  0
 13  8  1  0  0  0  0
 14  8  1  0  0  0  0
 16  9  1  0  0  0  0
 17 10  1  0  0  0  0
M  RAD  4   2   2   3   3   4   2  11   2
M  END
