Coordinates from ORCA-job 4-MeOPhN2+_B3LYPG-6-31G_dp-d09-49-n800
 OpenBabel11261919463D

 17 16  0  0  0  0  0  0  0  0999 V2000
   -1.4262   -0.1996   -0.0463 C   0  0  0  0  0  0  0  0  0  0  0  0
   -2.7795   -0.2339    0.0550 N   0  0  0  0  0  0  0  0  0  0  0  0
   -3.8961   -0.2608    0.1388 N   0  0  0  0  0  0  0  0  0  0  0  0
   -0.7407    1.0217   -0.0135 C   0  0  0  0  0  0  0  0  0  0  0  0
    0.6008    1.1216   -0.1084 C   0  0  0  0  0  0  0  0  0  0  0  0
    1.3488   -0.0947   -0.2492 C   0  0  0  0  0  0  0  0  0  0  0  0
    2.6536    0.0557   -0.3361 O   0  0  0  0  0  0  0  0  0  0  0  0
    3.5340   -1.0829   -0.4793 C   0  0  0  0  0  0  0  0  0  0  0  0
    0.6757   -1.3496   -0.2859 C   0  0  0  0  0  0  0  0  0  0  0  0
   -0.6943   -1.4138   -0.1865 C   0  0  0  0  0  0  0  0  0  0  0  0
   -2.7925    4.0472    0.3485 H   0  0  0  0  0  0  0  0  0  0  0  0
    1.1461    2.0618   -0.0842 H   0  0  0  0  0  0  0  0  0  0  0  0
    4.5358   -0.6605   -0.5196 H   0  0  0  0  0  0  0  0  0  0  0  0
    3.3157   -1.6172   -1.4079 H   0  0  0  0  0  0  0  0  0  0  0  0
    3.4409   -1.7454    0.3855 H   0  0  0  0  0  0  0  0  0  0  0  0
    1.2392   -2.2677   -0.3928 H   0  0  0  0  0  0  0  0  0  0  0  0
   -1.2162   -2.3665   -0.2136 H   0  0  0  0  0  0  0  0  0  0  0  0
  1  4  1  0  0  0  0
  1  2  1  0  0  0  0
  2  3  1  0  0  0  0
  5 12  1  0  0  0  0
  5  4  2  0  0  0  0
  6  5  1  0  0  0  0
  7  6  1  0  0  0  0
  8  7  1  0  0  0  0
  8 15  1  0  0  0  0
  9  6  2  0  0  0  0
  9 10  1  0  0  0  0
 10  1  2  0  0  0  0
 13  8  1  0  0  0  0
 14  8  1  0  0  0  0
 16  9  1  0  0  0  0
 17 10  1  0  0  0  0
M  RAD  4   2   2   3   3   4   2  11   2
M  END
