Coordinates from ORCA-job 4-MeOPhN2+_B3LYPG-6-31G_dp-d09-49-n800
 OpenBabel11261919463D

 17 16  0  0  0  0  0  0  0  0999 V2000
   -1.4217   -0.2829   -0.0520 C   0  0  0  0  0  0  0  0  0  0  0  0
   -2.7756   -0.3446    0.0475 N   0  0  0  0  0  0  0  0  0  0  0  0
   -3.8917   -0.3923    0.1297 N   0  0  0  0  0  0  0  0  0  0  0  0
   -0.7655    0.9545   -0.0154 C   0  0  0  0  0  0  0  0  0  0  0  0
    0.5761    1.0722   -0.1091 C   0  0  0  0  0  0  0  0  0  0  0  0
    1.3473   -0.1287   -0.2510 C   0  0  0  0  0  0  0  0  0  0  0  0
    2.6502    0.0455   -0.3362 O   0  0  0  0  0  0  0  0  0  0  0  0
    3.5500   -1.0769   -0.4804 C   0  0  0  0  0  0  0  0  0  0  0  0
    0.6983   -1.3961   -0.2909 C   0  0  0  0  0  0  0  0  0  0  0  0
   -0.6703   -1.4849   -0.1933 C   0  0  0  0  0  0  0  0  0  0  0  0
   -2.9185    4.7736    0.4058 H   0  0  0  0  0  0  0  0  0  0  0  0
    1.1081    2.0205   -0.0830 H   0  0  0  0  0  0  0  0  0  0  0  0
    4.5446   -0.6376   -0.5188 H   0  0  0  0  0  0  0  0  0  0  0  0
    3.3424   -1.6137   -1.4101 H   0  0  0  0  0  0  0  0  0  0  0  0
    3.4679   -1.7430    0.3828 H   0  0  0  0  0  0  0  0  0  0  0  0
    1.2790   -2.3034   -0.3984 H   0  0  0  0  0  0  0  0  0  0  0  0
   -1.1755   -2.4467   -0.2226 H   0  0  0  0  0  0  0  0  0  0  0  0
  1  4  1  0  0  0  0
  1  2  1  0  0  0  0
  2  3  1  0  0  0  0
  5 12  1  0  0  0  0
  5  4  2  0  0  0  0
  6  5  1  0  0  0  0
  7  6  1  0  0  0  0
  8  7  1  0  0  0  0
  8 15  1  0  0  0  0
  9  6  2  0  0  0  0
  9 10  1  0  0  0  0
 10  1  2  0  0  0  0
 13  8  1  0  0  0  0
 14  8  1  0  0  0  0
 16  9  1  0  0  0  0
 17 10  1  0  0  0  0
M  RAD  4   2   2   3   3   4   2  11   2
M  END
