Coordinates from ORCA-job 4-MeOPhN2+_B3LYPG-6-31G_dp-d09-49-n800
 OpenBabel11261919463D

 17 16  0  0  0  0  0  0  0  0999 V2000
   -1.4224   -0.2218   -0.0480 C   0  0  0  0  0  0  0  0  0  0  0  0
   -2.7761   -0.2632    0.0529 N   0  0  0  0  0  0  0  0  0  0  0  0
   -3.8926   -0.2954    0.1362 N   0  0  0  0  0  0  0  0  0  0  0  0
   -0.7447    1.0038   -0.0143 C   0  0  0  0  0  0  0  0  0  0  0  0
    0.5972    1.1068   -0.1090 C   0  0  0  0  0  0  0  0  0  0  0  0
    1.3507   -0.1058   -0.2501 C   0  0  0  0  0  0  0  0  0  0  0  0
    2.6552    0.0502   -0.3366 O   0  0  0  0  0  0  0  0  0  0  0  0
    3.5401   -1.0847   -0.4799 C   0  0  0  0  0  0  0  0  0  0  0  0
    0.6834   -1.3637   -0.2875 C   0  0  0  0  0  0  0  0  0  0  0  0
   -0.6863   -1.4335   -0.1885 C   0  0  0  0  0  0  0  0  0  0  0  0
   -2.8600    4.2683    0.3684 H   0  0  0  0  0  0  0  0  0  0  0  0
    1.1401    2.0485   -0.0845 H   0  0  0  0  0  0  0  0  0  0  0  0
    4.5403   -0.6586   -0.5198 H   0  0  0  0  0  0  0  0  0  0  0  0
    3.3243   -1.6197   -1.4087 H   0  0  0  0  0  0  0  0  0  0  0  0
    3.4496   -1.7481    0.3846 H   0  0  0  0  0  0  0  0  0  0  0  0
    1.2509   -2.2794   -0.3945 H   0  0  0  0  0  0  0  0  0  0  0  0
   -1.2046   -2.3883   -0.2160 H   0  0  0  0  0  0  0  0  0  0  0  0
  1  4  1  0  0  0  0
  1  2  1  0  0  0  0
  2  3  1  0  0  0  0
  5 12  1  0  0  0  0
  5  4  2  0  0  0  0
  6  5  1  0  0  0  0
  7  6  1  0  0  0  0
  8  7  1  0  0  0  0
  8 15  1  0  0  0  0
  9  6  2  0  0  0  0
  9 10  1  0  0  0  0
 10  1  2  0  0  0  0
 13  8  1  0  0  0  0
 14  8  1  0  0  0  0
 16  9  1  0  0  0  0
 17 10  1  0  0  0  0
M  RAD  4   2   2   3   3   4   2  11   2
M  END
