Coordinates from ORCA-job 4-MeOPhN2+_B3LYPG-6-31G_dp-d09-49-n800
 OpenBabel11261919463D

 17 16  0  0  0  0  0  0  0  0999 V2000
   -1.4245   -0.2072   -0.0469 C   0  0  0  0  0  0  0  0  0  0  0  0
   -2.7779   -0.2440    0.0543 N   0  0  0  0  0  0  0  0  0  0  0  0
   -3.8945   -0.2728    0.1379 N   0  0  0  0  0  0  0  0  0  0  0  0
   -0.7420    1.0158   -0.0137 C   0  0  0  0  0  0  0  0  0  0  0  0
    0.5998    1.1161   -0.1086 C   0  0  0  0  0  0  0  0  0  0  0  0
    1.3496   -0.0989   -0.2495 C   0  0  0  0  0  0  0  0  0  0  0  0
    2.6543    0.0535   -0.3363 O   0  0  0  0  0  0  0  0  0  0  0  0
    3.5363   -1.0838   -0.4795 C   0  0  0  0  0  0  0  0  0  0  0  0
    0.6785   -1.3548   -0.2865 C   0  0  0  0  0  0  0  0  0  0  0  0
   -0.6914   -1.4206   -0.1873 C   0  0  0  0  0  0  0  0  0  0  0  0
   -2.8193    4.1263    0.3556 H   0  0  0  0  0  0  0  0  0  0  0  0
    1.1446    2.0567   -0.0843 H   0  0  0  0  0  0  0  0  0  0  0  0
    4.5375   -0.6601   -0.5197 H   0  0  0  0  0  0  0  0  0  0  0  0
    3.3188   -1.6183   -1.4083 H   0  0  0  0  0  0  0  0  0  0  0  0
    3.4441   -1.7466    0.3851 H   0  0  0  0  0  0  0  0  0  0  0  0
    1.2433   -2.2721   -0.3935 H   0  0  0  0  0  0  0  0  0  0  0  0
   -1.2123   -2.3739   -0.2145 H   0  0  0  0  0  0  0  0  0  0  0  0
  1  4  1  0  0  0  0
  1  2  1  0  0  0  0
  2  3  1  0  0  0  0
  5 12  1  0  0  0  0
  5  4  2  0  0  0  0
  6  5  1  0  0  0  0
  7  6  1  0  0  0  0
  8  7  1  0  0  0  0
  8 15  1  0  0  0  0
  9  6  2  0  0  0  0
  9 10  1  0  0  0  0
 10  1  2  0  0  0  0
 13  8  1  0  0  0  0
 14  8  1  0  0  0  0
 16  9  1  0  0  0  0
 17 10  1  0  0  0  0
M  RAD  4   2   2   3   3   4   2  11   2
M  END
