Coordinates from ORCA-job 4-MeOPhN2+_B3LYPG-6-31G_dp-d09-49-n800
 OpenBabel11261919463D

 17 16  0  0  0  0  0  0  0  0999 V2000
   -1.4425   -0.1618   -0.0430 C   0  0  0  0  0  0  0  0  0  0  0  0
   -2.7945   -0.1857    0.0589 N   0  0  0  0  0  0  0  0  0  0  0  0
   -3.9110   -0.2034    0.1432 N   0  0  0  0  0  0  0  0  0  0  0  0
   -0.7470    1.0544   -0.0119 C   0  0  0  0  0  0  0  0  0  0  0  0
    0.5944    1.1525   -0.1068 C   0  0  0  0  0  0  0  0  0  0  0  0
    1.3349   -0.0681   -0.2468 C   0  0  0  0  0  0  0  0  0  0  0  0
    2.6399    0.0767   -0.3342 O   0  0  0  0  0  0  0  0  0  0  0  0
    3.5159   -1.0658   -0.4764 C   0  0  0  0  0  0  0  0  0  0  0  0
    0.6559   -1.3195   -0.2822 C   0  0  0  0  0  0  0  0  0  0  0  0
   -0.7148   -1.3778   -0.1824 C   0  0  0  0  0  0  0  0  0  0  0  0
   -2.5351    3.5648    0.2989 H   0  0  0  0  0  0  0  0  0  0  0  0
    1.1397    2.0916   -0.0831 H   0  0  0  0  0  0  0  0  0  0  0  0
    4.5192   -0.6472   -0.5173 H   0  0  0  0  0  0  0  0  0  0  0  0
    3.2951   -1.5999   -1.4045 H   0  0  0  0  0  0  0  0  0  0  0  0
    3.4202   -1.7268    0.3892 H   0  0  0  0  0  0  0  0  0  0  0  0
    1.2149   -2.2405   -0.3885 H   0  0  0  0  0  0  0  0  0  0  0  0
   -1.2403   -2.3283   -0.2086 H   0  0  0  0  0  0  0  0  0  0  0  0
  1  4  1  0  0  0  0
  1  2  1  0  0  0  0
  2  3  1  0  0  0  0
  5 12  1  0  0  0  0
  5  4  2  0  0  0  0
  6  5  1  0  0  0  0
  7  6  1  0  0  0  0
  8  7  1  0  0  0  0
  8 15  1  0  0  0  0
  9  6  2  0  0  0  0
  9 10  1  0  0  0  0
 10  1  2  0  0  0  0
 13  8  1  0  0  0  0
 14  8  1  0  0  0  0
 16  9  1  0  0  0  0
 17 10  1  0  0  0  0
M  RAD  4   2   2   3   3   4   2  11   2
M  END
