Coordinates from ORCA-job 4-MeOPhN2+_B3LYPG-6-31G_dp-d09-49-n800
 OpenBabel11261919463D

 17 17  0  0  0  0  0  0  0  0999 V2000
   -1.4873   -0.0820   -0.0339 C   0  0  0  0  0  0  0  0  0  0  0  0
   -2.8387   -0.1187    0.0667 N   0  0  0  0  0  0  0  0  0  0  0  0
   -3.9559   -0.1451    0.1501 N   0  0  0  0  0  0  0  0  0  0  0  0
   -0.8231    1.1678    0.0021 C   0  0  0  0  0  0  0  0  0  0  0  0
    0.5372    1.2153   -0.0975 C   0  0  0  0  0  0  0  0  0  0  0  0
    1.2732    0.0029   -0.2366 C   0  0  0  0  0  0  0  0  0  0  0  0
    2.5807    0.1494   -0.3241 O   0  0  0  0  0  0  0  0  0  0  0  0
    3.4535   -0.9929   -0.4671 C   0  0  0  0  0  0  0  0  0  0  0  0
    0.6003   -1.2484   -0.2727 C   0  0  0  0  0  0  0  0  0  0  0  0
   -0.7717   -1.2980   -0.1723 C   0  0  0  0  0  0  0  0  0  0  0  0
   -1.6099    2.3900    0.1462 H   0  0  0  0  0  0  0  0  0  0  0  0
    1.0822    2.1515   -0.0737 H   0  0  0  0  0  0  0  0  0  0  0  0
    4.4581   -0.5771   -0.5085 H   0  0  0  0  0  0  0  0  0  0  0  0
    3.2327   -1.5276   -1.3950 H   0  0  0  0  0  0  0  0  0  0  0  0
    3.3586   -1.6554    0.3978 H   0  0  0  0  0  0  0  0  0  0  0  0
    1.1558   -2.1713   -0.3788 H   0  0  0  0  0  0  0  0  0  0  0  0
   -1.3007   -2.2449   -0.1981 H   0  0  0  0  0  0  0  0  0  0  0  0
  1  4  1  0  0  0  0
  1  2  1  0  0  0  0
  2  3  1  0  0  0  0
  4 11  1  0  0  0  0
  5 12  1  0  0  0  0
  5  4  2  0  0  0  0
  6  5  1  0  0  0  0
  7  6  1  0  0  0  0
  8  7  1  0  0  0  0
  8 15  1  0  0  0  0
  9  6  2  0  0  0  0
  9 10  1  0  0  0  0
 10  1  2  0  0  0  0
 13  8  1  0  0  0  0
 14  8  1  0  0  0  0
 16  9  1  0  0  0  0
 17 10  1  0  0  0  0
M  RAD  2   2   2   3   3
M  END
