Coordinates from ORCA-job 4-MeOPhN2+_B3LYPG-6-31G_dp-d09-49-n800
 OpenBabel11261919463D

 17 16  0  0  0  0  0  0  0  0999 V2000
   -1.4474   -0.1537   -0.0421 C   0  0  0  0  0  0  0  0  0  0  0  0
   -2.7990   -0.1759    0.0600 N   0  0  0  0  0  0  0  0  0  0  0  0
   -3.9155   -0.1918    0.1444 N   0  0  0  0  0  0  0  0  0  0  0  0
   -0.7509    1.0624   -0.0112 C   0  0  0  0  0  0  0  0  0  0  0  0
    0.5907    1.1601   -0.1062 C   0  0  0  0  0  0  0  0  0  0  0  0
    1.3300   -0.0610   -0.2460 C   0  0  0  0  0  0  0  0  0  0  0  0
    2.6351    0.0833   -0.3335 O   0  0  0  0  0  0  0  0  0  0  0  0
    3.5104   -1.0597   -0.4755 C   0  0  0  0  0  0  0  0  0  0  0  0
    0.6505   -1.3121   -0.2814 C   0  0  0  0  0  0  0  0  0  0  0  0
   -0.7204   -1.3697   -0.1814 C   0  0  0  0  0  0  0  0  0  0  0  0
   -2.4545    3.4432    0.2846 H   0  0  0  0  0  0  0  0  0  0  0  0
    1.1355    2.0991   -0.0823 H   0  0  0  0  0  0  0  0  0  0  0  0
    4.5140   -0.6416   -0.5164 H   0  0  0  0  0  0  0  0  0  0  0  0
    3.2895   -1.5938   -1.4036 H   0  0  0  0  0  0  0  0  0  0  0  0
    3.4144   -1.7205    0.3902 H   0  0  0  0  0  0  0  0  0  0  0  0
    1.2089   -2.2334   -0.3877 H   0  0  0  0  0  0  0  0  0  0  0  0
   -1.2463   -2.3198   -0.2076 H   0  0  0  0  0  0  0  0  0  0  0  0
  1  4  1  0  0  0  0
  1  2  1  0  0  0  0
  2  3  1  0  0  0  0
  5 12  1  0  0  0  0
  5  4  2  0  0  0  0
  6  5  1  0  0  0  0
  7  6  1  0  0  0  0
  8  7  1  0  0  0  0
  8 15  1  0  0  0  0
  9  6  2  0  0  0  0
  9 10  1  0  0  0  0
 10  1  2  0  0  0  0
 13  8  1  0  0  0  0
 14  8  1  0  0  0  0
 16  9  1  0  0  0  0
 17 10  1  0  0  0  0
M  RAD  4   2   2   3   3   4   2  11   2
M  END
