Coordinates from ORCA-job 4-MeOPhN2+_B3LYPG-6-31G_dp-d09-49-n800
 OpenBabel11261919463D

 17 16  0  0  0  0  0  0  0  0999 V2000
   -1.4858   -0.0870   -0.0344 C   0  0  0  0  0  0  0  0  0  0  0  0
   -2.8370   -0.1218    0.0665 N   0  0  0  0  0  0  0  0  0  0  0  0
   -3.9541   -0.1469    0.1501 N   0  0  0  0  0  0  0  0  0  0  0  0
   -0.8182    1.1594    0.0011 C   0  0  0  0  0  0  0  0  0  0  0  0
    0.5404    1.2127   -0.0980 C   0  0  0  0  0  0  0  0  0  0  0  0
    1.2762   -0.0004   -0.2372 C   0  0  0  0  0  0  0  0  0  0  0  0
    2.5835    0.1458   -0.3247 O   0  0  0  0  0  0  0  0  0  0  0  0
    3.4565   -0.9965   -0.4674 C   0  0  0  0  0  0  0  0  0  0  0  0
    0.6029   -1.2519   -0.2733 C   0  0  0  0  0  0  0  0  0  0  0  0
   -0.7689   -1.3027   -0.1730 C   0  0  0  0  0  0  0  0  0  0  0  0
   -1.6550    2.4502    0.1539 H   0  0  0  0  0  0  0  0  0  0  0  0
    1.0845    2.1494   -0.0742 H   0  0  0  0  0  0  0  0  0  0  0  0
    4.4610   -0.5805   -0.5088 H   0  0  0  0  0  0  0  0  0  0  0  0
    3.2358   -1.5313   -1.3954 H   0  0  0  0  0  0  0  0  0  0  0  0
    3.3615   -1.6588    0.3975 H   0  0  0  0  0  0  0  0  0  0  0  0
    1.1589   -2.1745   -0.3795 H   0  0  0  0  0  0  0  0  0  0  0  0
   -1.2972   -2.2500   -0.1988 H   0  0  0  0  0  0  0  0  0  0  0  0
  1  4  1  0  0  0  0
  1  2  1  0  0  0  0
  2  3  1  0  0  0  0
  5 12  1  0  0  0  0
  5  4  2  0  0  0  0
  6  5  1  0  0  0  0
  7  6  1  0  0  0  0
  8  7  1  0  0  0  0
  8 15  1  0  0  0  0
  9  6  2  0  0  0  0
  9 10  1  0  0  0  0
 10  1  2  0  0  0  0
 13  8  1  0  0  0  0
 14  8  1  0  0  0  0
 16  9  1  0  0  0  0
 17 10  1  0  0  0  0
M  RAD  4   2   2   3   3   4   2  11   2
M  END
