Coordinates from ORCA-job 4-MeOPhN2+_B3LYPG-6-31G_dp-d09-49-n800
 OpenBabel11261919463D

 17 16  0  0  0  0  0  0  0  0999 V2000
   -1.4211   -0.2401   -0.0494 C   0  0  0  0  0  0  0  0  0  0  0  0
   -2.7749   -0.2874    0.0511 N   0  0  0  0  0  0  0  0  0  0  0  0
   -3.8914   -0.3241    0.1341 N   0  0  0  0  0  0  0  0  0  0  0  0
   -0.7498    0.9891   -0.0149 C   0  0  0  0  0  0  0  0  0  0  0  0
    0.5921    1.0956   -0.1094 C   0  0  0  0  0  0  0  0  0  0  0  0
    1.3507   -0.1136   -0.2506 C   0  0  0  0  0  0  0  0  0  0  0  0
    2.6548    0.0475   -0.3367 O   0  0  0  0  0  0  0  0  0  0  0  0
    3.5438   -1.0839   -0.4802 C   0  0  0  0  0  0  0  0  0  0  0  0
    0.6885   -1.3742   -0.2886 C   0  0  0  0  0  0  0  0  0  0  0  0
   -0.6808   -1.4492   -0.1900 C   0  0  0  0  0  0  0  0  0  0  0  0
   -2.8921    4.4315    0.3819 H   0  0  0  0  0  0  0  0  0  0  0  0
    1.1323    2.0391   -0.0845 H   0  0  0  0  0  0  0  0  0  0  0  0
    4.5425   -0.6541   -0.5197 H   0  0  0  0  0  0  0  0  0  0  0  0
    3.3304   -1.6195   -1.4092 H   0  0  0  0  0  0  0  0  0  0  0  0
    3.4557   -1.7480    0.3840 H   0  0  0  0  0  0  0  0  0  0  0  0
    1.2598   -2.2876   -0.3957 H   0  0  0  0  0  0  0  0  0  0  0  0
   -1.1956   -2.4059   -0.2179 H   0  0  0  0  0  0  0  0  0  0  0  0
  1  4  1  0  0  0  0
  1  2  1  0  0  0  0
  2  3  1  0  0  0  0
  5 12  1  0  0  0  0
  5  4  2  0  0  0  0
  6  5  1  0  0  0  0
  7  6  1  0  0  0  0
  8  7  1  0  0  0  0
  8 15  1  0  0  0  0
  9  6  2  0  0  0  0
  9 10  1  0  0  0  0
 10  1  2  0  0  0  0
 13  8  1  0  0  0  0
 14  8  1  0  0  0  0
 16  9  1  0  0  0  0
 17 10  1  0  0  0  0
M  RAD  4   2   2   3   3   4   2  11   2
M  END
