Coordinates from ORCA-job 4-MeOPhN2+_B3LYPG-6-31G_dp-d09-49-n800
 OpenBabel11261919463D

 17 16  0  0  0  0  0  0  0  0999 V2000
   -1.4256   -0.3333   -0.0553 C   0  0  0  0  0  0  0  0  0  0  0  0
   -2.7790   -0.4125    0.0427 N   0  0  0  0  0  0  0  0  0  0  0  0
   -3.8946   -0.4738    0.1237 N   0  0  0  0  0  0  0  0  0  0  0  0
   -0.7874    0.9134   -0.0170 C   0  0  0  0  0  0  0  0  0  0  0  0
    0.5533    1.0465   -0.1094 C   0  0  0  0  0  0  0  0  0  0  0  0
    1.3401   -0.1438   -0.2516 C   0  0  0  0  0  0  0  0  0  0  0  0
    2.6411    0.0470   -0.3356 O   0  0  0  0  0  0  0  0  0  0  0  0
    3.5547   -1.0639   -0.4800 C   0  0  0  0  0  0  0  0  0  0  0  0
    0.7078   -1.4196   -0.2929 C   0  0  0  0  0  0  0  0  0  0  0  0
   -0.6595   -1.5260   -0.1967 C   0  0  0  0  0  0  0  0  0  0  0  0
   -2.9068    5.1405    0.4309 H   0  0  0  0  0  0  0  0  0  0  0  0
    1.0741    2.0012   -0.0822 H   0  0  0  0  0  0  0  0  0  0  0  0
    4.5439   -0.6126   -0.5173 H   0  0  0  0  0  0  0  0  0  0  0  0
    3.3545   -1.6027   -1.4102 H   0  0  0  0  0  0  0  0  0  0  0  0
    3.4804   -1.7319    0.3826 H   0  0  0  0  0  0  0  0  0  0  0  0
    1.3004   -2.3191   -0.4003 H   0  0  0  0  0  0  0  0  0  0  0  0
   -1.1524   -2.4942   -0.2271 H   0  0  0  0  0  0  0  0  0  0  0  0
  1  4  1  0  0  0  0
  1  2  1  0  0  0  0
  2  3  1  0  0  0  0
  5 12  1  0  0  0  0
  5  4  2  0  0  0  0
  6  5  1  0  0  0  0
  7  6  1  0  0  0  0
  8  7  1  0  0  0  0
  8 15  1  0  0  0  0
  9  6  2  0  0  0  0
  9 10  1  0  0  0  0
 10  1  2  0  0  0  0
 13  8  1  0  0  0  0
 14  8  1  0  0  0  0
 16  9  1  0  0  0  0
 17 10  1  0  0  0  0
M  RAD  4   2   2   3   3   4   2  11   2
M  END
