Coordinates from ORCA-job 4-MeOPhN2+_B3LYPG-6-31G_dp-d09-49-n800
 OpenBabel11261919463D

 17 16  0  0  0  0  0  0  0  0999 V2000
   -1.4326   -0.1805   -0.0453 C   0  0  0  0  0  0  0  0  0  0  0  0
   -2.7854   -0.2092    0.0559 N   0  0  0  0  0  0  0  0  0  0  0  0
   -3.9017   -0.2314    0.1436 N   0  0  0  0  0  0  0  0  0  0  0  0
   -0.7413    1.0377   -0.0133 C   0  0  0  0  0  0  0  0  0  0  0  0
    0.6002    1.1362   -0.1080 C   0  0  0  0  0  0  0  0  0  0  0  0
    1.3440   -0.0828   -0.2483 C   0  0  0  0  0  0  0  0  0  0  0  0
    2.6489    0.0640   -0.3353 O   0  0  0  0  0  0  0  0  0  0  0  0
    3.5265   -1.0771   -0.4779 C   0  0  0  0  0  0  0  0  0  0  0  0
    0.6671   -1.3355   -0.2845 C   0  0  0  0  0  0  0  0  0  0  0  0
   -0.7033   -1.3960   -0.1851 C   0  0  0  0  0  0  0  0  0  0  0  0
   -2.6916    3.8242    0.3267 H   0  0  0  0  0  0  0  0  0  0  0  0
    1.1463    2.0755   -0.0840 H   0  0  0  0  0  0  0  0  0  0  0  0
    4.5293   -0.6572   -0.5183 H   0  0  0  0  0  0  0  0  0  0  0  0
    3.3067   -1.6111   -1.4063 H   0  0  0  0  0  0  0  0  0  0  0  0
    3.4316   -1.7388    0.3873 H   0  0  0  0  0  0  0  0  0  0  0  0
    1.2278   -2.2554   -0.3910 H   0  0  0  0  0  0  0  0  0  0  0  0
   -1.2275   -2.3474   -0.2118 H   0  0  0  0  0  0  0  0  0  0  0  0
  1  4  1  0  0  0  0
  1  2  1  0  0  0  0
  2  3  1  0  0  0  0
  5 12  1  0  0  0  0
  5  4  2  0  0  0  0
  6  5  1  0  0  0  0
  7  6  1  0  0  0  0
  8  7  1  0  0  0  0
  8 15  1  0  0  0  0
  9  6  2  0  0  0  0
  9 10  1  0  0  0  0
 10  1  2  0  0  0  0
 13  8  1  0  0  0  0
 14  8  1  0  0  0  0
 16  9  1  0  0  0  0
 17 10  1  0  0  0  0
M  RAD  4   2   2   3   3   4   2  11   2
M  END
