Coordinates from ORCA-job 4-MeOPhN2+_B3LYPG-6-31G_dp-d09-49-n800
 OpenBabel11261919463D

 17 16  0  0  0  0  0  0  0  0999 V2000
   -1.4209   -0.2593   -0.0506 C   0  0  0  0  0  0  0  0  0  0  0  0
   -2.7748   -0.3130    0.0495 N   0  0  0  0  0  0  0  0  0  0  0  0
   -3.8911   -0.3546    0.1321 N   0  0  0  0  0  0  0  0  0  0  0  0
   -0.7563    0.9736   -0.0152 C   0  0  0  0  0  0  0  0  0  0  0  0
    0.5855    1.0848   -0.1093 C   0  0  0  0  0  0  0  0  0  0  0  0
    1.3496   -0.1207   -0.2508 C   0  0  0  0  0  0  0  0  0  0  0  0
    2.6532    0.0461   -0.3365 O   0  0  0  0  0  0  0  0  0  0  0  0
    3.5469   -1.0814   -0.4804 C   0  0  0  0  0  0  0  0  0  0  0  0
    0.6932   -1.3844   -0.2896 C   0  0  0  0  0  0  0  0  0  0  0  0
   -0.6758   -1.4654   -0.1915 C   0  0  0  0  0  0  0  0  0  0  0  0
   -2.9102    4.5902    0.3934 H   0  0  0  0  0  0  0  0  0  0  0  0
    1.1222    2.0304   -0.0839 H   0  0  0  0  0  0  0  0  0  0  0  0
    4.5439   -0.6475   -0.5194 H   0  0  0  0  0  0  0  0  0  0  0  0
    3.3360   -1.6175   -1.4097 H   0  0  0  0  0  0  0  0  0  0  0  0
    3.4614   -1.7465    0.3834 H   0  0  0  0  0  0  0  0  0  0  0  0
    1.2686   -2.2951   -0.3969 H   0  0  0  0  0  0  0  0  0  0  0  0
   -1.1864   -2.4243   -0.2200 H   0  0  0  0  0  0  0  0  0  0  0  0
  1  4  1  0  0  0  0
  1  2  1  0  0  0  0
  2  3  1  0  0  0  0
  5 12  1  0  0  0  0
  5  4  2  0  0  0  0
  6  5  1  0  0  0  0
  7  6  1  0  0  0  0
  8  7  1  0  0  0  0
  8 15  1  0  0  0  0
  9  6  2  0  0  0  0
  9 10  1  0  0  0  0
 10  1  2  0  0  0  0
 13  8  1  0  0  0  0
 14  8  1  0  0  0  0
 16  9  1  0  0  0  0
 17 10  1  0  0  0  0
M  RAD  4   2   2   3   3   4   2  11   2
M  END
