Coordinates from ORCA-job 4-MeOPhN2+_B3LYPG-6-31G_dp-d09-49-n800
 OpenBabel11261919463D

 17 16  0  0  0  0  0  0  0  0999 V2000
   -1.4368   -0.1711   -0.0439 C   0  0  0  0  0  0  0  0  0  0  0  0
   -2.7892   -0.1972    0.0579 N   0  0  0  0  0  0  0  0  0  0  0  0
   -3.9058   -0.2168    0.1421 N   0  0  0  0  0  0  0  0  0  0  0  0
   -0.7434    1.0460   -0.0125 C   0  0  0  0  0  0  0  0  0  0  0  0
    0.5980    1.1439   -0.1074 C   0  0  0  0  0  0  0  0  0  0  0  0
    1.3400   -0.0760   -0.2476 C   0  0  0  0  0  0  0  0  0  0  0  0
    2.6450    0.0697   -0.3349 O   0  0  0  0  0  0  0  0  0  0  0  0
    3.5217   -1.0721   -0.4774 C   0  0  0  0  0  0  0  0  0  0  0  0
    0.6619   -1.3280   -0.2833 C   0  0  0  0  0  0  0  0  0  0  0  0
   -0.7086   -1.3870   -0.1835 C   0  0  0  0  0  0  0  0  0  0  0  0
   -2.6220    3.7001    0.3139 H   0  0  0  0  0  0  0  0  0  0  0  0
    1.1441    2.0828   -0.0837 H   0  0  0  0  0  0  0  0  0  0  0  0
    4.5248   -0.6529   -0.5181 H   0  0  0  0  0  0  0  0  0  0  0  0
    3.3013   -1.6062   -1.4056 H   0  0  0  0  0  0  0  0  0  0  0  0
    3.4264   -1.7334    0.3881 H   0  0  0  0  0  0  0  0  0  0  0  0
    1.2216   -2.2485   -0.3897 H   0  0  0  0  0  0  0  0  0  0  0  0
   -1.2339   -2.3378   -0.2099 H   0  0  0  0  0  0  0  0  0  0  0  0
  1  4  1  0  0  0  0
  1  2  1  0  0  0  0
  2  3  1  0  0  0  0
  5 12  1  0  0  0  0
  5  4  2  0  0  0  0
  6  5  1  0  0  0  0
  7  6  1  0  0  0  0
  8  7  1  0  0  0  0
  8 15  1  0  0  0  0
  9  6  2  0  0  0  0
  9 10  1  0  0  0  0
 10  1  2  0  0  0  0
 13  8  1  0  0  0  0
 14  8  1  0  0  0  0
 16  9  1  0  0  0  0
 17 10  1  0  0  0  0
M  RAD  4   2   2   3   3   4   2  11   2
M  END
