Coordinates from ORCA-job 4-MeOPhN2+_B3LYPG-6-31G_dp-d09-49-n800
 OpenBabel11261919463D

 17 16  0  0  0  0  0  0  0  0999 V2000
   -1.4249   -0.2058   -0.0466 C   0  0  0  0  0  0  0  0  0  0  0  0
   -2.7783   -0.2422    0.0549 N   0  0  0  0  0  0  0  0  0  0  0  0
   -3.8950   -0.2705    0.1371 N   0  0  0  0  0  0  0  0  0  0  0  0
   -0.7416    1.0167   -0.0136 C   0  0  0  0  0  0  0  0  0  0  0  0
    0.6001    1.1174   -0.1085 C   0  0  0  0  0  0  0  0  0  0  0  0
    1.3496   -0.0980   -0.2494 C   0  0  0  0  0  0  0  0  0  0  0  0
    2.6543    0.0539   -0.3363 O   0  0  0  0  0  0  0  0  0  0  0  0
    3.5359   -1.0838   -0.4796 C   0  0  0  0  0  0  0  0  0  0  0  0
    0.6780   -1.3537   -0.2863 C   0  0  0  0  0  0  0  0  0  0  0  0
   -0.6919   -1.4193   -0.1870 C   0  0  0  0  0  0  0  0  0  0  0  0
   -2.8150    4.1118    0.3545 H   0  0  0  0  0  0  0  0  0  0  0  0
    1.1449    2.0579   -0.0844 H   0  0  0  0  0  0  0  0  0  0  0  0
    4.5373   -0.6605   -0.5198 H   0  0  0  0  0  0  0  0  0  0  0  0
    3.3182   -1.6183   -1.4083 H   0  0  0  0  0  0  0  0  0  0  0  0
    3.4435   -1.7465    0.3851 H   0  0  0  0  0  0  0  0  0  0  0  0
    1.2426   -2.2711   -0.3933 H   0  0  0  0  0  0  0  0  0  0  0  0
   -1.2128   -2.3726   -0.2141 H   0  0  0  0  0  0  0  0  0  0  0  0
  1  4  1  0  0  0  0
  1  2  1  0  0  0  0
  2  3  1  0  0  0  0
  5 12  1  0  0  0  0
  5  4  2  0  0  0  0
  6  5  1  0  0  0  0
  7  6  1  0  0  0  0
  8  7  1  0  0  0  0
  8 15  1  0  0  0  0
  9  6  2  0  0  0  0
  9 10  1  0  0  0  0
 10  1  2  0  0  0  0
 13  8  1  0  0  0  0
 14  8  1  0  0  0  0
 16  9  1  0  0  0  0
 17 10  1  0  0  0  0
M  RAD  4   2   2   3   3   4   2  11   2
M  END
