Coordinates from ORCA-job 4-MeOPhN2+_B3LYPG-6-31G_dp-d09-49-n800
 OpenBabel11261919463D

 17 16  0  0  0  0  0  0  0  0999 V2000
   -1.4264   -0.1992   -0.0466 C   0  0  0  0  0  0  0  0  0  0  0  0
   -2.7797   -0.2335    0.0545 N   0  0  0  0  0  0  0  0  0  0  0  0
   -3.8961   -0.2604    0.1405 N   0  0  0  0  0  0  0  0  0  0  0  0
   -0.7408    1.0221   -0.0137 C   0  0  0  0  0  0  0  0  0  0  0  0
    0.6008    1.1220   -0.1084 C   0  0  0  0  0  0  0  0  0  0  0  0
    1.3487   -0.0944   -0.2492 C   0  0  0  0  0  0  0  0  0  0  0  0
    2.6535    0.0559   -0.3360 O   0  0  0  0  0  0  0  0  0  0  0  0
    3.5338   -1.0828   -0.4791 C   0  0  0  0  0  0  0  0  0  0  0  0
    0.6755   -1.3493   -0.2860 C   0  0  0  0  0  0  0  0  0  0  0  0
   -0.6945   -1.4134   -0.1868 C   0  0  0  0  0  0  0  0  0  0  0  0
   -2.7906    4.0429    0.3478 H   0  0  0  0  0  0  0  0  0  0  0  0
    1.1462    2.0620   -0.0842 H   0  0  0  0  0  0  0  0  0  0  0  0
    4.5357   -0.6606   -0.5193 H   0  0  0  0  0  0  0  0  0  0  0  0
    3.3156   -1.6171   -1.4078 H   0  0  0  0  0  0  0  0  0  0  0  0
    3.4406   -1.7453    0.3857 H   0  0  0  0  0  0  0  0  0  0  0  0
    1.2390   -2.2674   -0.3929 H   0  0  0  0  0  0  0  0  0  0  0  0
   -1.2164   -2.3661   -0.2140 H   0  0  0  0  0  0  0  0  0  0  0  0
  1  4  1  0  0  0  0
  1  2  1  0  0  0  0
  2  3  1  0  0  0  0
  5 12  1  0  0  0  0
  5  4  2  0  0  0  0
  6  5  1  0  0  0  0
  7  6  1  0  0  0  0
  8  7  1  0  0  0  0
  8 15  1  0  0  0  0
  9  6  2  0  0  0  0
  9 10  1  0  0  0  0
 10  1  2  0  0  0  0
 13  8  1  0  0  0  0
 14  8  1  0  0  0  0
 16  9  1  0  0  0  0
 17 10  1  0  0  0  0
M  RAD  4   2   2   3   3   4   2  11   2
M  END
