Coordinates from ORCA-job 4-MeOPhN2+_B3LYPG-6-31G_dp-d09-49-n800
 OpenBabel11261919463D

 17 16  0  0  0  0  0  0  0  0999 V2000
   -1.4682   -0.1269   -0.0385 C   0  0  0  0  0  0  0  0  0  0  0  0
   -2.8187   -0.1490    0.0635 N   0  0  0  0  0  0  0  0  0  0  0  0
   -3.9352   -0.1645    0.1479 N   0  0  0  0  0  0  0  0  0  0  0  0
   -0.7765    1.0952   -0.0066 C   0  0  0  0  0  0  0  0  0  0  0  0
    0.5691    1.1862   -0.1025 C   0  0  0  0  0  0  0  0  0  0  0  0
    1.3059   -0.0332   -0.2424 C   0  0  0  0  0  0  0  0  0  0  0  0
    2.6116    0.1119   -0.3298 O   0  0  0  0  0  0  0  0  0  0  0  0
    3.4865   -1.0308   -0.4717 C   0  0  0  0  0  0  0  0  0  0  0  0
    0.6286   -1.2847   -0.2780 C   0  0  0  0  0  0  0  0  0  0  0  0
   -0.7428   -1.3416   -0.1778 C   0  0  0  0  0  0  0  0  0  0  0  0
   -2.0913    2.9947    0.2253 H   0  0  0  0  0  0  0  0  0  0  0  0
    1.1104    2.1256   -0.0781 H   0  0  0  0  0  0  0  0  0  0  0  0
    4.4902   -0.6129   -0.5127 H   0  0  0  0  0  0  0  0  0  0  0  0
    3.2660   -1.5653   -1.3997 H   0  0  0  0  0  0  0  0  0  0  0  0
    3.3909   -1.6919    0.3939 H   0  0  0  0  0  0  0  0  0  0  0  0
    1.1867   -2.2060   -0.3843 H   0  0  0  0  0  0  0  0  0  0  0  0
   -1.2683   -2.2914   -0.2040 H   0  0  0  0  0  0  0  0  0  0  0  0
  1  4  1  0  0  0  0
  1  2  1  0  0  0  0
  2  3  1  0  0  0  0
  5 12  1  0  0  0  0
  5  4  2  0  0  0  0
  6  5  1  0  0  0  0
  7  6  1  0  0  0  0
  8  7  1  0  0  0  0
  8 15  1  0  0  0  0
  9  6  2  0  0  0  0
  9 10  1  0  0  0  0
 10  1  2  0  0  0  0
 13  8  1  0  0  0  0
 14  8  1  0  0  0  0
 16  9  1  0  0  0  0
 17 10  1  0  0  0  0
M  RAD  4   2   2   3   3   4   2  11   2
M  END
