Coordinates from ORCA-job 4-MeOPhN2+_B3LYPG-6-31G_dp-d09-49-n800
 OpenBabel11261919463D

 17 17  0  0  0  0  0  0  0  0999 V2000
   -1.4915   -0.0670   -0.0325 C   0  0  0  0  0  0  0  0  0  0  0  0
   -2.8439   -0.1084    0.0676 N   0  0  0  0  0  0  0  0  0  0  0  0
   -3.9613   -0.1382    0.1505 N   0  0  0  0  0  0  0  0  0  0  0  0
   -0.8365    1.1921    0.0049 C   0  0  0  0  0  0  0  0  0  0  0  0
    0.5283    1.2227   -0.0961 C   0  0  0  0  0  0  0  0  0  0  0  0
    1.2650    0.0126   -0.2351 C   0  0  0  0  0  0  0  0  0  0  0  0
    2.5728    0.1596   -0.3227 O   0  0  0  0  0  0  0  0  0  0  0  0
    3.4451   -0.9826   -0.4659 C   0  0  0  0  0  0  0  0  0  0  0  0
    0.5924   -1.2379   -0.2711 C   0  0  0  0  0  0  0  0  0  0  0  0
   -0.7798   -1.2840   -0.1705 C   0  0  0  0  0  0  0  0  0  0  0  0
   -1.4807    2.2099    0.1239 H   0  0  0  0  0  0  0  0  0  0  0  0
    1.0756    2.1580   -0.0727 H   0  0  0  0  0  0  0  0  0  0  0  0
    4.4499   -0.5673   -0.5075 H   0  0  0  0  0  0  0  0  0  0  0  0
    3.2241   -1.5174   -1.3938 H   0  0  0  0  0  0  0  0  0  0  0  0
    3.3503   -1.6454    0.3988 H   0  0  0  0  0  0  0  0  0  0  0  0
    1.1463   -2.1619   -0.3772 H   0  0  0  0  0  0  0  0  0  0  0  0
   -1.3109   -2.2295   -0.1961 H   0  0  0  0  0  0  0  0  0  0  0  0
  1  4  1  0  0  0  0
  1  2  1  0  0  0  0
  2  3  1  0  0  0  0
  4 11  1  0  0  0  0
  5 12  1  0  0  0  0
  5  4  2  0  0  0  0
  6  5  1  0  0  0  0
  7  6  1  0  0  0  0
  8  7  1  0  0  0  0
  8 15  1  0  0  0  0
  9  6  2  0  0  0  0
  9 10  1  0  0  0  0
 10  1  2  0  0  0  0
 13  8  1  0  0  0  0
 14  8  1  0  0  0  0
 16  9  1  0  0  0  0
 17 10  1  0  0  0  0
M  RAD  2   2   2   3   3
M  END
