Coordinates from ORCA-job 4-MeOPhN2+_B3LYPG-6-31G_dp-d09-49-n800
 OpenBabel11261919463D

 17 16  0  0  0  0  0  0  0  0999 V2000
   -1.4211   -0.2690   -0.0512 C   0  0  0  0  0  0  0  0  0  0  0  0
   -2.7750   -0.3256    0.0487 N   0  0  0  0  0  0  0  0  0  0  0  0
   -3.8913   -0.3696    0.1314 N   0  0  0  0  0  0  0  0  0  0  0  0
   -0.7596    0.9654   -0.0153 C   0  0  0  0  0  0  0  0  0  0  0  0
    0.5820    1.0797   -0.1092 C   0  0  0  0  0  0  0  0  0  0  0  0
    1.3489   -0.1240   -0.2509 C   0  0  0  0  0  0  0  0  0  0  0  0
    2.6523    0.0456   -0.3364 O   0  0  0  0  0  0  0  0  0  0  0  0
    3.5483   -1.0800   -0.4804 C   0  0  0  0  0  0  0  0  0  0  0  0
    0.6954   -1.3892   -0.2902 C   0  0  0  0  0  0  0  0  0  0  0  0
   -0.6734   -1.4734   -0.1923 C   0  0  0  0  0  0  0  0  0  0  0  0
   -2.9168    4.6670    0.3987 H   0  0  0  0  0  0  0  0  0  0  0  0
    1.1168    2.0265   -0.0835 H   0  0  0  0  0  0  0  0  0  0  0  0
    4.5444   -0.6441   -0.5191 H   0  0  0  0  0  0  0  0  0  0  0  0
    3.3387   -1.6163   -1.4099 H   0  0  0  0  0  0  0  0  0  0  0  0
    3.4641   -1.7455    0.3831 H   0  0  0  0  0  0  0  0  0  0  0  0
    1.2729   -2.2985   -0.3976 H   0  0  0  0  0  0  0  0  0  0  0  0
   -1.1817   -2.4336   -0.2212 H   0  0  0  0  0  0  0  0  0  0  0  0
  1  4  1  0  0  0  0
  1  2  1  0  0  0  0
  2  3  1  0  0  0  0
  5 12  1  0  0  0  0
  5  4  2  0  0  0  0
  6  5  1  0  0  0  0
  7  6  1  0  0  0  0
  8  7  1  0  0  0  0
  8 15  1  0  0  0  0
  9  6  2  0  0  0  0
  9 10  1  0  0  0  0
 10  1  2  0  0  0  0
 13  8  1  0  0  0  0
 14  8  1  0  0  0  0
 16  9  1  0  0  0  0
 17 10  1  0  0  0  0
M  RAD  4   2   2   3   3   4   2  11   2
M  END
