Coordinates from ORCA-job 4-MeOPhN2+_B3LYPG-6-31G_dp-d09-49-n800
 OpenBabel11261919463D

 17 16  0  0  0  0  0  0  0  0999 V2000
   -1.4223   -0.2239   -0.0481 C   0  0  0  0  0  0  0  0  0  0  0  0
   -2.7760   -0.2659    0.0530 N   0  0  0  0  0  0  0  0  0  0  0  0
   -3.8926   -0.2985    0.1353 N   0  0  0  0  0  0  0  0  0  0  0  0
   -0.7450    1.0019   -0.0144 C   0  0  0  0  0  0  0  0  0  0  0  0
    0.5968    1.1057   -0.1090 C   0  0  0  0  0  0  0  0  0  0  0  0
    1.3509   -0.1066   -0.2501 C   0  0  0  0  0  0  0  0  0  0  0  0
    2.6554    0.0498   -0.3367 O   0  0  0  0  0  0  0  0  0  0  0  0
    3.5405   -1.0849   -0.4800 C   0  0  0  0  0  0  0  0  0  0  0  0
    0.6840   -1.3648   -0.2876 C   0  0  0  0  0  0  0  0  0  0  0  0
   -0.6856   -1.4353   -0.1886 C   0  0  0  0  0  0  0  0  0  0  0  0
   -2.8649    4.2873    0.3702 H   0  0  0  0  0  0  0  0  0  0  0  0
    1.1393    2.0477   -0.0845 H   0  0  0  0  0  0  0  0  0  0  0  0
    4.5406   -0.6584   -0.5199 H   0  0  0  0  0  0  0  0  0  0  0  0
    3.3249   -1.6199   -1.4088 H   0  0  0  0  0  0  0  0  0  0  0  0
    3.4502   -1.7482    0.3845 H   0  0  0  0  0  0  0  0  0  0  0  0
    1.2520   -2.2802   -0.3946 H   0  0  0  0  0  0  0  0  0  0  0  0
   -1.2034   -2.3903   -0.2161 H   0  0  0  0  0  0  0  0  0  0  0  0
  1  4  1  0  0  0  0
  1  2  1  0  0  0  0
  2  3  1  0  0  0  0
  5 12  1  0  0  0  0
  5  4  2  0  0  0  0
  6  5  1  0  0  0  0
  7  6  1  0  0  0  0
  8  7  1  0  0  0  0
  8 15  1  0  0  0  0
  9  6  2  0  0  0  0
  9 10  1  0  0  0  0
 10  1  2  0  0  0  0
 13  8  1  0  0  0  0
 14  8  1  0  0  0  0
 16  9  1  0  0  0  0
 17 10  1  0  0  0  0
M  RAD  4   2   2   3   3   4   2  11   2
M  END
