Coordinates from ORCA-job 4-MeOPhN2+_B3LYPG-6-31G_dp-d09-49-n800
 OpenBabel11261919463D

 17 16  0  0  0  0  0  0  0  0999 V2000
   -1.4228   -0.2183   -0.0478 C   0  0  0  0  0  0  0  0  0  0  0  0
   -2.7764   -0.2585    0.0533 N   0  0  0  0  0  0  0  0  0  0  0  0
   -3.8930   -0.2899    0.1366 N   0  0  0  0  0  0  0  0  0  0  0  0
   -0.7439    1.0068   -0.0142 C   0  0  0  0  0  0  0  0  0  0  0  0
    0.5979    1.1089   -0.1089 C   0  0  0  0  0  0  0  0  0  0  0  0
    1.3505   -0.1042   -0.2499 C   0  0  0  0  0  0  0  0  0  0  0  0
    2.6551    0.0509   -0.3365 O   0  0  0  0  0  0  0  0  0  0  0  0
    3.5392   -1.0846   -0.4798 C   0  0  0  0  0  0  0  0  0  0  0  0
    0.6822   -1.3617   -0.2873 C   0  0  0  0  0  0  0  0  0  0  0  0
   -0.6875   -1.4304   -0.1882 C   0  0  0  0  0  0  0  0  0  0  0  0
   -2.8513    4.2348    0.3654 H   0  0  0  0  0  0  0  0  0  0  0  0
    1.1413    2.0503   -0.0845 H   0  0  0  0  0  0  0  0  0  0  0  0
    4.5397   -0.6590   -0.5198 H   0  0  0  0  0  0  0  0  0  0  0  0
    3.3230   -1.6195   -1.4086 H   0  0  0  0  0  0  0  0  0  0  0  0
    3.4483   -1.7478    0.3847 H   0  0  0  0  0  0  0  0  0  0  0  0
    1.2491   -2.2777   -0.3943 H   0  0  0  0  0  0  0  0  0  0  0  0
   -1.2065   -2.3847   -0.2157 H   0  0  0  0  0  0  0  0  0  0  0  0
  1  4  1  0  0  0  0
  1  2  1  0  0  0  0
  2  3  1  0  0  0  0
  5 12  1  0  0  0  0
  5  4  2  0  0  0  0
  6  5  1  0  0  0  0
  7  6  1  0  0  0  0
  8  7  1  0  0  0  0
  8 15  1  0  0  0  0
  9  6  2  0  0  0  0
  9 10  1  0  0  0  0
 10  1  2  0  0  0  0
 13  8  1  0  0  0  0
 14  8  1  0  0  0  0
 16  9  1  0  0  0  0
 17 10  1  0  0  0  0
M  RAD  4   2   2   3   3   4   2  11   2
M  END
