Coordinates from ORCA-job 4-MeOPhN2+_B3LYPG-6-31G_dp-d09-49-n800
 OpenBabel11261919463D

 17 16  0  0  0  0  0  0  0  0999 V2000
   -1.4443   -0.1591   -0.0428 C   0  0  0  0  0  0  0  0  0  0  0  0
   -2.7962   -0.1825    0.0591 N   0  0  0  0  0  0  0  0  0  0  0  0
   -3.9127   -0.1997    0.1442 N   0  0  0  0  0  0  0  0  0  0  0  0
   -0.7486    1.0571   -0.0117 C   0  0  0  0  0  0  0  0  0  0  0  0
    0.5929    1.1551   -0.1066 C   0  0  0  0  0  0  0  0  0  0  0  0
    1.3331   -0.0656   -0.2466 C   0  0  0  0  0  0  0  0  0  0  0  0
    2.6381    0.0792   -0.3339 O   0  0  0  0  0  0  0  0  0  0  0  0
    3.5139   -1.0635   -0.4760 C   0  0  0  0  0  0  0  0  0  0  0  0
    0.6540   -1.3170   -0.2820 C   0  0  0  0  0  0  0  0  0  0  0  0
   -0.7168   -1.3750   -0.1822 C   0  0  0  0  0  0  0  0  0  0  0  0
   -2.5054    3.5226    0.2938 H   0  0  0  0  0  0  0  0  0  0  0  0
    1.1380    2.0942   -0.0828 H   0  0  0  0  0  0  0  0  0  0  0  0
    4.5173   -0.6449   -0.5168 H   0  0  0  0  0  0  0  0  0  0  0  0
    3.2932   -1.5976   -1.4041 H   0  0  0  0  0  0  0  0  0  0  0  0
    3.4181   -1.7244    0.3897 H   0  0  0  0  0  0  0  0  0  0  0  0
    1.2128   -2.2380   -0.3883 H   0  0  0  0  0  0  0  0  0  0  0  0
   -1.2424   -2.3254   -0.2084 H   0  0  0  0  0  0  0  0  0  0  0  0
  1  4  1  0  0  0  0
  1  2  1  0  0  0  0
  2  3  1  0  0  0  0
  5 12  1  0  0  0  0
  5  4  2  0  0  0  0
  6  5  1  0  0  0  0
  7  6  1  0  0  0  0
  8  7  1  0  0  0  0
  8 15  1  0  0  0  0
  9  6  2  0  0  0  0
  9 10  1  0  0  0  0
 10  1  2  0  0  0  0
 13  8  1  0  0  0  0
 14  8  1  0  0  0  0
 16  9  1  0  0  0  0
 17 10  1  0  0  0  0
M  RAD  4   2   2   3   3   4   2  11   2
M  END
