Coordinates from ORCA-job 4-MeOPhN2+_B3LYPG-6-31G_dp-d09-49-n800
 OpenBabel11261919463D

 17 16  0  0  0  0  0  0  0  0999 V2000
   -1.4394   -0.1666   -0.0435 C   0  0  0  0  0  0  0  0  0  0  0  0
   -2.7916   -0.1915    0.0584 N   0  0  0  0  0  0  0  0  0  0  0  0
   -3.9081   -0.2101    0.1427 N   0  0  0  0  0  0  0  0  0  0  0  0
   -0.7449    1.0501   -0.0122 C   0  0  0  0  0  0  0  0  0  0  0  0
    0.5964    1.1479   -0.1071 C   0  0  0  0  0  0  0  0  0  0  0  0
    1.3377   -0.0723   -0.2472 C   0  0  0  0  0  0  0  0  0  0  0  0
    2.6427    0.0730   -0.3346 O   0  0  0  0  0  0  0  0  0  0  0  0
    3.5190   -1.0692   -0.4769 C   0  0  0  0  0  0  0  0  0  0  0  0
    0.6591   -1.3240   -0.2828 C   0  0  0  0  0  0  0  0  0  0  0  0
   -0.7115   -1.3826   -0.1830 C   0  0  0  0  0  0  0  0  0  0  0  0
   -2.5821    3.6357    0.3068 H   0  0  0  0  0  0  0  0  0  0  0  0
    1.1423    2.0869   -0.0834 H   0  0  0  0  0  0  0  0  0  0  0  0
    4.5222   -0.6503   -0.5177 H   0  0  0  0  0  0  0  0  0  0  0  0
    3.2984   -1.6033   -1.4051 H   0  0  0  0  0  0  0  0  0  0  0  0
    3.4235   -1.7304    0.3886 H   0  0  0  0  0  0  0  0  0  0  0  0
    1.2184   -2.2448   -0.3892 H   0  0  0  0  0  0  0  0  0  0  0  0
   -1.2370   -2.3331   -0.2092 H   0  0  0  0  0  0  0  0  0  0  0  0
  1  4  1  0  0  0  0
  1  2  1  0  0  0  0
  2  3  1  0  0  0  0
  5 12  1  0  0  0  0
  5  4  2  0  0  0  0
  6  5  1  0  0  0  0
  7  6  1  0  0  0  0
  8  7  1  0  0  0  0
  8 15  1  0  0  0  0
  9  6  2  0  0  0  0
  9 10  1  0  0  0  0
 10  1  2  0  0  0  0
 13  8  1  0  0  0  0
 14  8  1  0  0  0  0
 16  9  1  0  0  0  0
 17 10  1  0  0  0  0
M  RAD  4   2   2   3   3   4   2  11   2
M  END
