Coordinates from ORCA-job 4-MeOPhN2+_B3LYPG-6-31G_dp-d09-49-n800
 OpenBabel11261919463D

 17 16  0  0  0  0  0  0  0  0999 V2000
   -1.4210   -0.2639   -0.0509 C   0  0  0  0  0  0  0  0  0  0  0  0
   -2.7749   -0.3191    0.0492 N   0  0  0  0  0  0  0  0  0  0  0  0
   -3.8912   -0.3619    0.1317 N   0  0  0  0  0  0  0  0  0  0  0  0
   -0.7581    0.9699   -0.0152 C   0  0  0  0  0  0  0  0  0  0  0  0
    0.5837    1.0823   -0.1092 C   0  0  0  0  0  0  0  0  0  0  0  0
    1.3492   -0.1223   -0.2508 C   0  0  0  0  0  0  0  0  0  0  0  0
    2.6527    0.0459   -0.3364 O   0  0  0  0  0  0  0  0  0  0  0  0
    3.5476   -1.0806   -0.4804 C   0  0  0  0  0  0  0  0  0  0  0  0
    0.6942   -1.3867   -0.2899 C   0  0  0  0  0  0  0  0  0  0  0  0
   -0.6747   -1.4692   -0.1919 C   0  0  0  0  0  0  0  0  0  0  0  0
   -2.9127    4.6266    0.3958 H   0  0  0  0  0  0  0  0  0  0  0  0
    1.1196    2.0284   -0.0837 H   0  0  0  0  0  0  0  0  0  0  0  0
    4.5441   -0.6457   -0.5193 H   0  0  0  0  0  0  0  0  0  0  0  0
    3.3373   -1.6168   -1.4098 H   0  0  0  0  0  0  0  0  0  0  0  0
    3.4627   -1.7459    0.3832 H   0  0  0  0  0  0  0  0  0  0  0  0
    1.2707   -2.2968   -0.3973 H   0  0  0  0  0  0  0  0  0  0  0  0
   -1.1843   -2.4287   -0.2206 H   0  0  0  0  0  0  0  0  0  0  0  0
  1  4  1  0  0  0  0
  1  2  1  0  0  0  0
  2  3  1  0  0  0  0
  5 12  1  0  0  0  0
  5  4  2  0  0  0  0
  6  5  1  0  0  0  0
  7  6  1  0  0  0  0
  8  7  1  0  0  0  0
  8 15  1  0  0  0  0
  9  6  2  0  0  0  0
  9 10  1  0  0  0  0
 10  1  2  0  0  0  0
 13  8  1  0  0  0  0
 14  8  1  0  0  0  0
 16  9  1  0  0  0  0
 17 10  1  0  0  0  0
M  RAD  4   2   2   3   3   4   2  11   2
M  END
