Coordinates from ORCA-job 4-MeOPhN2+_B3LYPG-6-31G_dp-d09-49-n800
 OpenBabel11261919463D

 17 16  0  0  0  0  0  0  0  0999 V2000
   -1.4756   -0.1139   -0.0370 C   0  0  0  0  0  0  0  0  0  0  0  0
   -2.8260   -0.1390    0.0647 N   0  0  0  0  0  0  0  0  0  0  0  0
   -3.9427   -0.1569    0.1490 N   0  0  0  0  0  0  0  0  0  0  0  0
   -0.7903    1.1148   -0.0040 C   0  0  0  0  0  0  0  0  0  0  0  0
    0.5590    1.1964   -0.1008 C   0  0  0  0  0  0  0  0  0  0  0  0
    1.2950   -0.0212   -0.2405 C   0  0  0  0  0  0  0  0  0  0  0  0
    2.6013    0.1243   -0.3280 O   0  0  0  0  0  0  0  0  0  0  0  0
    3.4756   -1.0182   -0.4701 C   0  0  0  0  0  0  0  0  0  0  0  0
    0.6192   -1.2729   -0.2764 C   0  0  0  0  0  0  0  0  0  0  0  0
   -0.7523   -1.3286   -0.1762 C   0  0  0  0  0  0  0  0  0  0  0  0
   -1.9321    2.8008    0.1992 H   0  0  0  0  0  0  0  0  0  0  0  0
    1.1001    2.1353   -0.0763 H   0  0  0  0  0  0  0  0  0  0  0  0
    4.4795   -0.6008   -0.5111 H   0  0  0  0  0  0  0  0  0  0  0  0
    3.2552   -1.5528   -1.3982 H   0  0  0  0  0  0  0  0  0  0  0  0
    3.3802   -1.6797    0.3952 H   0  0  0  0  0  0  0  0  0  0  0  0
    1.1770   -2.1944   -0.3828 H   0  0  0  0  0  0  0  0  0  0  0  0
   -1.2782   -2.2778   -0.2023 H   0  0  0  0  0  0  0  0  0  0  0  0
  1  4  1  0  0  0  0
  1  2  1  0  0  0  0
  2  3  1  0  0  0  0
  5 12  1  0  0  0  0
  5  4  2  0  0  0  0
  6  5  1  0  0  0  0
  7  6  1  0  0  0  0
  8  7  1  0  0  0  0
  8 15  1  0  0  0  0
  9  6  2  0  0  0  0
  9 10  1  0  0  0  0
 10  1  2  0  0  0  0
 13  8  1  0  0  0  0
 14  8  1  0  0  0  0
 16  9  1  0  0  0  0
 17 10  1  0  0  0  0
M  RAD  4   2   2   3   3   4   2  11   2
M  END
