Coordinates from ORCA-job 4-MeOPhN2+_B3LYPG-6-31G_dp-d09-49-n800
 OpenBabel11261919463D

 17 17  0  0  0  0  0  0  0  0999 V2000
   -1.4964   -0.0510   -0.0310 C   0  0  0  0  0  0  0  0  0  0  0  0
   -2.8499   -0.0943    0.0694 N   0  0  0  0  0  0  0  0  0  0  0  0
   -3.9673   -0.1254    0.1525 N   0  0  0  0  0  0  0  0  0  0  0  0
   -0.8486    1.2146    0.0074 C   0  0  0  0  0  0  0  0  0  0  0  0
    0.5189    1.2317   -0.0954 C   0  0  0  0  0  0  0  0  0  0  0  0
    1.2567    0.0234   -0.2346 C   0  0  0  0  0  0  0  0  0  0  0  0
    2.5646    0.1707   -0.3221 O   0  0  0  0  0  0  0  0  0  0  0  0
    3.4367   -0.9717   -0.4641 C   0  0  0  0  0  0  0  0  0  0  0  0
    0.5838   -1.2260   -0.2704 C   0  0  0  0  0  0  0  0  0  0  0  0
   -0.7888   -1.2689   -0.1693 C   0  0  0  0  0  0  0  0  0  0  0  0
   -1.3452    2.0073    0.1009 H   0  0  0  0  0  0  0  0  0  0  0  0
    1.0672    2.1669   -0.0718 H   0  0  0  0  0  0  0  0  0  0  0  0
    4.4416   -0.5568   -0.5057 H   0  0  0  0  0  0  0  0  0  0  0  0
    3.2159   -1.5074   -1.3916 H   0  0  0  0  0  0  0  0  0  0  0  0
    3.3414   -1.6337    0.4012 H   0  0  0  0  0  0  0  0  0  0  0  0
    1.1360   -2.1511   -0.3766 H   0  0  0  0  0  0  0  0  0  0  0  0
   -1.3219   -2.2131   -0.1945 H   0  0  0  0  0  0  0  0  0  0  0  0
  1  4  1  0  0  0  0
  1  2  1  0  0  0  0
  2  3  1  0  0  0  0
  4 11  1  0  0  0  0
  5 12  1  0  0  0  0
  5  4  2  0  0  0  0
  6  5  1  0  0  0  0
  7  6  1  0  0  0  0
  8  7  1  0  0  0  0
  8 15  1  0  0  0  0
  9  6  2  0  0  0  0
  9 10  1  0  0  0  0
 10  1  2  0  0  0  0
 13  8  1  0  0  0  0
 14  8  1  0  0  0  0
 16  9  1  0  0  0  0
 17 10  1  0  0  0  0
M  RAD  2   2   2   3   3
M  END
