Coordinates from ORCA-job 4-MeOPhN2+_B3LYPG-6-31G_dp-d09-49-n800
 OpenBabel11261919463D

 17 16  0  0  0  0  0  0  0  0999 V2000
   -1.4509   -0.1489   -0.0419 C   0  0  0  0  0  0  0  0  0  0  0  0
   -2.8022   -0.1705    0.0599 N   0  0  0  0  0  0  0  0  0  0  0  0
   -3.9185   -0.1863    0.1472 N   0  0  0  0  0  0  0  0  0  0  0  0
   -0.7540    1.0673   -0.0108 C   0  0  0  0  0  0  0  0  0  0  0  0
    0.5879    1.1649   -0.1056 C   0  0  0  0  0  0  0  0  0  0  0  0
    1.3265   -0.0563   -0.2455 C   0  0  0  0  0  0  0  0  0  0  0  0
    2.6316    0.0878   -0.3327 O   0  0  0  0  0  0  0  0  0  0  0  0
    3.5067   -1.0554   -0.4747 C   0  0  0  0  0  0  0  0  0  0  0  0
    0.6469   -1.3074   -0.2810 C   0  0  0  0  0  0  0  0  0  0  0  0
   -0.7240   -1.3648   -0.1812 C   0  0  0  0  0  0  0  0  0  0  0  0
   -2.3989    3.3678    0.2747 H   0  0  0  0  0  0  0  0  0  0  0  0
    1.1320    2.1040   -0.0816 H   0  0  0  0  0  0  0  0  0  0  0  0
    4.5104   -0.6376   -0.5155 H   0  0  0  0  0  0  0  0  0  0  0  0
    3.2857   -1.5895   -1.4028 H   0  0  0  0  0  0  0  0  0  0  0  0
    3.4105   -1.7163    0.3910 H   0  0  0  0  0  0  0  0  0  0  0  0
    1.2052   -2.2287   -0.3873 H   0  0  0  0  0  0  0  0  0  0  0  0
   -1.2499   -2.3148   -0.2075 H   0  0  0  0  0  0  0  0  0  0  0  0
  1  4  1  0  0  0  0
  1  2  1  0  0  0  0
  2  3  1  0  0  0  0
  5 12  1  0  0  0  0
  5  4  2  0  0  0  0
  6  5  1  0  0  0  0
  7  6  1  0  0  0  0
  8  7  1  0  0  0  0
  8 15  1  0  0  0  0
  9  6  2  0  0  0  0
  9 10  1  0  0  0  0
 10  1  2  0  0  0  0
 13  8  1  0  0  0  0
 14  8  1  0  0  0  0
 16  9  1  0  0  0  0
 17 10  1  0  0  0  0
M  RAD  4   2   2   3   3   4   2  11   2
M  END
