Coordinates from ORCA-job 4-MeOPhN2+_B3LYPG-6-31G_dp-d09-49-n800
 OpenBabel11261919463D

 17 16  0  0  0  0  0  0  0  0999 V2000
   -1.4211   -0.2665   -0.0510 C   0  0  0  0  0  0  0  0  0  0  0  0
   -2.7750   -0.3224    0.0489 N   0  0  0  0  0  0  0  0  0  0  0  0
   -3.8912   -0.3658    0.1314 N   0  0  0  0  0  0  0  0  0  0  0  0
   -0.7589    0.9677   -0.0152 C   0  0  0  0  0  0  0  0  0  0  0  0
    0.5829    1.0810   -0.1092 C   0  0  0  0  0  0  0  0  0  0  0  0
    1.3491   -0.1232   -0.2509 C   0  0  0  0  0  0  0  0  0  0  0  0
    2.6525    0.0457   -0.3364 O   0  0  0  0  0  0  0  0  0  0  0  0
    3.5479   -1.0803   -0.4804 C   0  0  0  0  0  0  0  0  0  0  0  0
    0.6948   -1.3879   -0.2900 C   0  0  0  0  0  0  0  0  0  0  0  0
   -0.6741   -1.4714   -0.1921 C   0  0  0  0  0  0  0  0  0  0  0  0
   -2.9146    4.6470    0.3973 H   0  0  0  0  0  0  0  0  0  0  0  0
    1.1182    2.0274   -0.0836 H   0  0  0  0  0  0  0  0  0  0  0  0
    4.5442   -0.6449   -0.5193 H   0  0  0  0  0  0  0  0  0  0  0  0
    3.3380   -1.6166   -1.4099 H   0  0  0  0  0  0  0  0  0  0  0  0
    3.4634   -1.7457    0.3831 H   0  0  0  0  0  0  0  0  0  0  0  0
    1.2718   -2.2976   -0.3974 H   0  0  0  0  0  0  0  0  0  0  0  0
   -1.1830   -2.4312   -0.2209 H   0  0  0  0  0  0  0  0  0  0  0  0
  1  4  1  0  0  0  0
  1  2  1  0  0  0  0
  2  3  1  0  0  0  0
  5 12  1  0  0  0  0
  5  4  2  0  0  0  0
  6  5  1  0  0  0  0
  7  6  1  0  0  0  0
  8  7  1  0  0  0  0
  8 15  1  0  0  0  0
  9  6  2  0  0  0  0
  9 10  1  0  0  0  0
 10  1  2  0  0  0  0
 13  8  1  0  0  0  0
 14  8  1  0  0  0  0
 16  9  1  0  0  0  0
 17 10  1  0  0  0  0
M  RAD  4   2   2   3   3   4   2  11   2
M  END
