Coordinates from ORCA-job 4-MeOPhN2+_B3LYPG-6-31G_dp-d09-49-n800
 OpenBabel11261919463D

 17 16  0  0  0  0  0  0  0  0999 V2000
   -1.4661   -0.1300   -0.0388 C   0  0  0  0  0  0  0  0  0  0  0  0
   -2.8167   -0.1517    0.0631 N   0  0  0  0  0  0  0  0  0  0  0  0
   -3.9332   -0.1669    0.1476 N   0  0  0  0  0  0  0  0  0  0  0  0
   -0.7732    1.0908   -0.0072 C   0  0  0  0  0  0  0  0  0  0  0  0
    0.5717    1.1834   -0.1029 C   0  0  0  0  0  0  0  0  0  0  0  0
    1.3087   -0.0363   -0.2428 C   0  0  0  0  0  0  0  0  0  0  0  0
    2.6143    0.1087   -0.3302 O   0  0  0  0  0  0  0  0  0  0  0  0
    3.4893   -1.0340   -0.4722 C   0  0  0  0  0  0  0  0  0  0  0  0
    0.6310   -1.2877   -0.2783 C   0  0  0  0  0  0  0  0  0  0  0  0
   -0.7403   -1.3449   -0.1782 C   0  0  0  0  0  0  0  0  0  0  0  0
   -2.1323    3.0445    0.2319 H   0  0  0  0  0  0  0  0  0  0  0  0
    1.1131    2.1229   -0.0785 H   0  0  0  0  0  0  0  0  0  0  0  0
    4.4929   -0.6161   -0.5131 H   0  0  0  0  0  0  0  0  0  0  0  0
    3.2687   -1.5685   -1.4002 H   0  0  0  0  0  0  0  0  0  0  0  0
    3.3936   -1.6951    0.3935 H   0  0  0  0  0  0  0  0  0  0  0  0
    1.1892   -2.2090   -0.3847 H   0  0  0  0  0  0  0  0  0  0  0  0
   -1.2658   -2.2947   -0.2044 H   0  0  0  0  0  0  0  0  0  0  0  0
  1  4  1  0  0  0  0
  1  2  1  0  0  0  0
  2  3  1  0  0  0  0
  5 12  1  0  0  0  0
  5  4  2  0  0  0  0
  6  5  1  0  0  0  0
  7  6  1  0  0  0  0
  8  7  1  0  0  0  0
  8 15  1  0  0  0  0
  9  6  2  0  0  0  0
  9 10  1  0  0  0  0
 10  1  2  0  0  0  0
 13  8  1  0  0  0  0
 14  8  1  0  0  0  0
 16  9  1  0  0  0  0
 17 10  1  0  0  0  0
M  RAD  4   2   2   3   3   4   2  11   2
M  END
