Coordinates from ORCA-job 4-MeOPhN2+_B3LYPG-6-31G_dp-d09-49-n800
 OpenBabel11261919463D

 17 16  0  0  0  0  0  0  0  0999 V2000
   -1.4709   -0.1225   -0.0380 C   0  0  0  0  0  0  0  0  0  0  0  0
   -2.8213   -0.1454    0.0639 N   0  0  0  0  0  0  0  0  0  0  0  0
   -3.9379   -0.1616    0.1483 N   0  0  0  0  0  0  0  0  0  0  0  0
   -0.7811    1.1015   -0.0058 C   0  0  0  0  0  0  0  0  0  0  0  0
    0.5656    1.1898   -0.1019 C   0  0  0  0  0  0  0  0  0  0  0  0
    1.3021   -0.0291   -0.2418 C   0  0  0  0  0  0  0  0  0  0  0  0
    2.6080    0.1162   -0.3292 O   0  0  0  0  0  0  0  0  0  0  0  0
    3.4828   -1.0264   -0.4712 C   0  0  0  0  0  0  0  0  0  0  0  0
    0.6253   -1.2806   -0.2774 C   0  0  0  0  0  0  0  0  0  0  0  0
   -0.7461   -1.3372   -0.1773 C   0  0  0  0  0  0  0  0  0  0  0  0
   -2.0359    2.9275    0.2163 H   0  0  0  0  0  0  0  0  0  0  0  0
    1.1067    2.1291   -0.0775 H   0  0  0  0  0  0  0  0  0  0  0  0
    4.4865   -0.6087   -0.5121 H   0  0  0  0  0  0  0  0  0  0  0  0
    3.2623   -1.5609   -1.3991 H   0  0  0  0  0  0  0  0  0  0  0  0
    3.3872   -1.6876    0.3944 H   0  0  0  0  0  0  0  0  0  0  0  0
    1.1834   -2.2020   -0.3838 H   0  0  0  0  0  0  0  0  0  0  0  0
   -1.2717   -2.2868   -0.2035 H   0  0  0  0  0  0  0  0  0  0  0  0
  1  4  1  0  0  0  0
  1  2  1  0  0  0  0
  2  3  1  0  0  0  0
  5 12  1  0  0  0  0
  5  4  2  0  0  0  0
  6  5  1  0  0  0  0
  7  6  1  0  0  0  0
  8  7  1  0  0  0  0
  8 15  1  0  0  0  0
  9  6  2  0  0  0  0
  9 10  1  0  0  0  0
 10  1  2  0  0  0  0
 13  8  1  0  0  0  0
 14  8  1  0  0  0  0
 16  9  1  0  0  0  0
 17 10  1  0  0  0  0
M  RAD  4   2   2   3   3   4   2  11   2
M  END
