Coordinates from ORCA-job 4-MeOPhN2+_B3LYPG-6-31G_dp-d09-49-n800
 OpenBabel11261919463D

 17 16  0  0  0  0  0  0  0  0999 V2000
   -1.4585   -0.1403   -0.0402 C   0  0  0  0  0  0  0  0  0  0  0  0
   -2.8095   -0.1613    0.0618 N   0  0  0  0  0  0  0  0  0  0  0  0
   -3.9259   -0.1760    0.1463 N   0  0  0  0  0  0  0  0  0  0  0  0
   -0.7629    1.0775   -0.0090 C   0  0  0  0  0  0  0  0  0  0  0  0
    0.5800    1.1738   -0.1043 C   0  0  0  0  0  0  0  0  0  0  0  0
    1.3180   -0.0468   -0.2442 C   0  0  0  0  0  0  0  0  0  0  0  0
    2.6233    0.0978   -0.3317 O   0  0  0  0  0  0  0  0  0  0  0  0
    3.4985   -1.0451   -0.4736 C   0  0  0  0  0  0  0  0  0  0  0  0
    0.6393   -1.2980   -0.2796 C   0  0  0  0  0  0  0  0  0  0  0  0
   -0.7318   -1.3555   -0.1796 C   0  0  0  0  0  0  0  0  0  0  0  0
   -2.2704    3.2129    0.2544 H   0  0  0  0  0  0  0  0  0  0  0  0
    1.1226    2.1133   -0.0801 H   0  0  0  0  0  0  0  0  0  0  0  0
    4.5020   -0.6270   -0.5145 H   0  0  0  0  0  0  0  0  0  0  0  0
    3.2776   -1.5793   -1.4016 H   0  0  0  0  0  0  0  0  0  0  0  0
    3.4026   -1.7059    0.3921 H   0  0  0  0  0  0  0  0  0  0  0  0
    1.1976   -2.2193   -0.3860 H   0  0  0  0  0  0  0  0  0  0  0  0
   -1.2574   -2.3055   -0.2058 H   0  0  0  0  0  0  0  0  0  0  0  0
  1  4  1  0  0  0  0
  1  2  1  0  0  0  0
  2  3  1  0  0  0  0
  5 12  1  0  0  0  0
  5  4  2  0  0  0  0
  6  5  1  0  0  0  0
  7  6  1  0  0  0  0
  8  7  1  0  0  0  0
  8 15  1  0  0  0  0
  9  6  2  0  0  0  0
  9 10  1  0  0  0  0
 10  1  2  0  0  0  0
 13  8  1  0  0  0  0
 14  8  1  0  0  0  0
 16  9  1  0  0  0  0
 17 10  1  0  0  0  0
M  RAD  4   2   2   3   3   4   2  11   2
M  END
