Coordinates from ORCA-job 4-MeOPhN2+_B3LYPG-6-31G_dp-d09-49-n800
 OpenBabel11261919463D

 17 16  0  0  0  0  0  0  0  0999 V2000
   -1.4264   -0.1984   -0.0462 C   0  0  0  0  0  0  0  0  0  0  0  0
   -2.7797   -0.2326    0.0552 N   0  0  0  0  0  0  0  0  0  0  0  0
   -3.8962   -0.2592    0.1387 N   0  0  0  0  0  0  0  0  0  0  0  0
   -0.7410    1.0231   -0.0134 C   0  0  0  0  0  0  0  0  0  0  0  0
    0.6007    1.1222   -0.1083 C   0  0  0  0  0  0  0  0  0  0  0  0
    1.3484   -0.0942   -0.2491 C   0  0  0  0  0  0  0  0  0  0  0  0
    2.6532    0.0562   -0.3361 O   0  0  0  0  0  0  0  0  0  0  0  0
    3.5335   -1.0824   -0.4792 C   0  0  0  0  0  0  0  0  0  0  0  0
    0.6752   -1.3490   -0.2858 C   0  0  0  0  0  0  0  0  0  0  0  0
   -0.6948   -1.4127   -0.1864 C   0  0  0  0  0  0  0  0  0  0  0  0
   -2.7868    4.0345    0.3473 H   0  0  0  0  0  0  0  0  0  0  0  0
    1.1463    2.0621   -0.0842 H   0  0  0  0  0  0  0  0  0  0  0  0
    4.5354   -0.6602   -0.5195 H   0  0  0  0  0  0  0  0  0  0  0  0
    3.3152   -1.6168   -1.4078 H   0  0  0  0  0  0  0  0  0  0  0  0
    3.4405   -1.7449    0.3856 H   0  0  0  0  0  0  0  0  0  0  0  0
    1.2385   -2.2672   -0.3927 H   0  0  0  0  0  0  0  0  0  0  0  0
   -1.2171   -2.3652   -0.2134 H   0  0  0  0  0  0  0  0  0  0  0  0
  1  4  1  0  0  0  0
  1  2  1  0  0  0  0
  2  3  1  0  0  0  0
  5 12  1  0  0  0  0
  5  4  2  0  0  0  0
  6  5  1  0  0  0  0
  7  6  1  0  0  0  0
  8  7  1  0  0  0  0
  8 15  1  0  0  0  0
  9  6  2  0  0  0  0
  9 10  1  0  0  0  0
 10  1  2  0  0  0  0
 13  8  1  0  0  0  0
 14  8  1  0  0  0  0
 16  9  1  0  0  0  0
 17 10  1  0  0  0  0
M  RAD  4   2   2   3   3   4   2  11   2
M  END
