Coordinates from ORCA-job 4-MeOPhN2+_B3LYPG-6-31G_dp-d09-49-n800
 OpenBabel11261919463D

 17 16  0  0  0  0  0  0  0  0999 V2000
   -1.4239   -0.2113   -0.0473 C   0  0  0  0  0  0  0  0  0  0  0  0
   -2.7774   -0.2494    0.0539 N   0  0  0  0  0  0  0  0  0  0  0  0
   -3.8940   -0.2791    0.1377 N   0  0  0  0  0  0  0  0  0  0  0  0
   -0.7424    1.0122   -0.0140 C   0  0  0  0  0  0  0  0  0  0  0  0
    0.5994    1.1137   -0.1087 C   0  0  0  0  0  0  0  0  0  0  0  0
    1.3502   -0.1008   -0.2497 C   0  0  0  0  0  0  0  0  0  0  0  0
    2.6549    0.0524   -0.3364 O   0  0  0  0  0  0  0  0  0  0  0  0
    3.5374   -1.0844   -0.4797 C   0  0  0  0  0  0  0  0  0  0  0  0
    0.6800   -1.3572   -0.2868 C   0  0  0  0  0  0  0  0  0  0  0  0
   -0.6898   -1.4242   -0.1877 C   0  0  0  0  0  0  0  0  0  0  0  0
   -2.8331    4.1677    0.3594 H   0  0  0  0  0  0  0  0  0  0  0  0
    1.1435    2.0546   -0.0843 H   0  0  0  0  0  0  0  0  0  0  0  0
    4.5385   -0.6602   -0.5197 H   0  0  0  0  0  0  0  0  0  0  0  0
    3.3204   -1.6190   -1.4084 H   0  0  0  0  0  0  0  0  0  0  0  0
    3.4456   -1.7474    0.3850 H   0  0  0  0  0  0  0  0  0  0  0  0
    1.2456   -2.2741   -0.3938 H   0  0  0  0  0  0  0  0  0  0  0  0
   -1.2099   -2.3780   -0.2150 H   0  0  0  0  0  0  0  0  0  0  0  0
  1  4  1  0  0  0  0
  1  2  1  0  0  0  0
  2  3  1  0  0  0  0
  5 12  1  0  0  0  0
  5  4  2  0  0  0  0
  6  5  1  0  0  0  0
  7  6  1  0  0  0  0
  8  7  1  0  0  0  0
  8 15  1  0  0  0  0
  9  6  2  0  0  0  0
  9 10  1  0  0  0  0
 10  1  2  0  0  0  0
 13  8  1  0  0  0  0
 14  8  1  0  0  0  0
 16  9  1  0  0  0  0
 17 10  1  0  0  0  0
M  RAD  4   2   2   3   3   4   2  11   2
M  END
