Coordinates from ORCA-job 4-MeOPhN2+_B3LYPG-6-31G_dp-d09-49-n800
 OpenBabel11261919463D

 17 17  0  0  0  0  0  0  0  0999 V2000
   -1.4888   -0.0766   -0.0334 C   0  0  0  0  0  0  0  0  0  0  0  0
   -2.8406   -0.1152    0.0669 N   0  0  0  0  0  0  0  0  0  0  0  0
   -3.9579   -0.1430    0.1501 N   0  0  0  0  0  0  0  0  0  0  0  0
   -0.8281    1.1767    0.0031 C   0  0  0  0  0  0  0  0  0  0  0  0
    0.5340    1.2179   -0.0969 C   0  0  0  0  0  0  0  0  0  0  0  0
    1.2702    0.0064   -0.2360 C   0  0  0  0  0  0  0  0  0  0  0  0
    2.5778    0.1530   -0.3235 O   0  0  0  0  0  0  0  0  0  0  0  0
    3.4504   -0.9892   -0.4667 C   0  0  0  0  0  0  0  0  0  0  0  0
    0.5974   -1.2446   -0.2720 C   0  0  0  0  0  0  0  0  0  0  0  0
   -0.7746   -1.2930   -0.1716 C   0  0  0  0  0  0  0  0  0  0  0  0
   -1.5628    2.3258    0.1380 H   0  0  0  0  0  0  0  0  0  0  0  0
    1.0799    2.1537   -0.0733 H   0  0  0  0  0  0  0  0  0  0  0  0
    4.4550   -0.5735   -0.5082 H   0  0  0  0  0  0  0  0  0  0  0  0
    3.2294   -1.5239   -1.3947 H   0  0  0  0  0  0  0  0  0  0  0  0
    3.3556   -1.6518    0.3981 H   0  0  0  0  0  0  0  0  0  0  0  0
    1.1524   -2.1680   -0.3782 H   0  0  0  0  0  0  0  0  0  0  0  0
   -1.3043   -2.2394   -0.1973 H   0  0  0  0  0  0  0  0  0  0  0  0
  1  4  1  0  0  0  0
  1  2  1  0  0  0  0
  2  3  1  0  0  0  0
  4 11  1  0  0  0  0
  5 12  1  0  0  0  0
  5  4  2  0  0  0  0
  6  5  1  0  0  0  0
  7  6  1  0  0  0  0
  8  7  1  0  0  0  0
  8 15  1  0  0  0  0
  9  6  2  0  0  0  0
  9 10  1  0  0  0  0
 10  1  2  0  0  0  0
 13  8  1  0  0  0  0
 14  8  1  0  0  0  0
 16  9  1  0  0  0  0
 17 10  1  0  0  0  0
M  RAD  2   2   2   3   3
M  END
