Coordinates from ORCA-job 4-MeOPhN2+_B3LYPG-6-31G_dp-d09-49-n800
 OpenBabel11261919463D

 17 16  0  0  0  0  0  0  0  0999 V2000
   -1.4241   -0.2100   -0.0470 C   0  0  0  0  0  0  0  0  0  0  0  0
   -2.7777   -0.2476    0.0543 N   0  0  0  0  0  0  0  0  0  0  0  0
   -3.8943   -0.2769    0.1371 N   0  0  0  0  0  0  0  0  0  0  0  0
   -0.7422    1.0133   -0.0138 C   0  0  0  0  0  0  0  0  0  0  0  0
    0.5996    1.1146   -0.1086 C   0  0  0  0  0  0  0  0  0  0  0  0
    1.3501   -0.1001   -0.2496 C   0  0  0  0  0  0  0  0  0  0  0  0
    2.6547    0.0528   -0.3364 O   0  0  0  0  0  0  0  0  0  0  0  0
    3.5370   -1.0843   -0.4797 C   0  0  0  0  0  0  0  0  0  0  0  0
    0.6795   -1.3563   -0.2866 C   0  0  0  0  0  0  0  0  0  0  0  0
   -0.6904   -1.4230   -0.1874 C   0  0  0  0  0  0  0  0  0  0  0  0
   -2.8285    4.1537    0.3582 H   0  0  0  0  0  0  0  0  0  0  0  0
    1.1439    2.0554   -0.0843 H   0  0  0  0  0  0  0  0  0  0  0  0
    4.5382   -0.6603   -0.5198 H   0  0  0  0  0  0  0  0  0  0  0  0
    3.3198   -1.6188   -1.4084 H   0  0  0  0  0  0  0  0  0  0  0  0
    3.4451   -1.7472    0.3850 H   0  0  0  0  0  0  0  0  0  0  0  0
    1.2448   -2.2733   -0.3936 H   0  0  0  0  0  0  0  0  0  0  0  0
   -1.2106   -2.3767   -0.2147 H   0  0  0  0  0  0  0  0  0  0  0  0
  1  4  1  0  0  0  0
  1  2  1  0  0  0  0
  2  3  1  0  0  0  0
  5 12  1  0  0  0  0
  5  4  2  0  0  0  0
  6  5  1  0  0  0  0
  7  6  1  0  0  0  0
  8  7  1  0  0  0  0
  8 15  1  0  0  0  0
  9  6  2  0  0  0  0
  9 10  1  0  0  0  0
 10  1  2  0  0  0  0
 13  8  1  0  0  0  0
 14  8  1  0  0  0  0
 16  9  1  0  0  0  0
 17 10  1  0  0  0  0
M  RAD  4   2   2   3   3   4   2  11   2
M  END
