Coordinates from ORCA-job 4-MeOPhN2+_B3LYPG-6-31G_dp-d09-49-n800
 OpenBabel11261919463D

 17 16  0  0  0  0  0  0  0  0999 V2000
   -1.4800   -0.1039   -0.0360 C   0  0  0  0  0  0  0  0  0  0  0  0
   -2.8305   -0.1323    0.0655 N   0  0  0  0  0  0  0  0  0  0  0  0
   -3.9474   -0.1527    0.1497 N   0  0  0  0  0  0  0  0  0  0  0  0
   -0.8009    1.1309   -0.0021 C   0  0  0  0  0  0  0  0  0  0  0  0
    0.5517    1.2031   -0.0997 C   0  0  0  0  0  0  0  0  0  0  0  0
    1.2874   -0.0129   -0.2393 C   0  0  0  0  0  0  0  0  0  0  0  0
    2.5941    0.1329   -0.3267 O   0  0  0  0  0  0  0  0  0  0  0  0
    3.4680   -1.0095   -0.4690 C   0  0  0  0  0  0  0  0  0  0  0  0
    0.6128   -1.2646   -0.2753 C   0  0  0  0  0  0  0  0  0  0  0  0
   -0.7589   -1.3189   -0.1750 C   0  0  0  0  0  0  0  0  0  0  0  0
   -1.8218    2.6642    0.1813 H   0  0  0  0  0  0  0  0  0  0  0  0
    1.0935    2.1413   -0.0754 H   0  0  0  0  0  0  0  0  0  0  0  0
    4.4721   -0.5927   -0.5100 H   0  0  0  0  0  0  0  0  0  0  0  0
    3.2475   -1.5442   -1.3970 H   0  0  0  0  0  0  0  0  0  0  0  0
    3.3726   -1.6713    0.3962 H   0  0  0  0  0  0  0  0  0  0  0  0
    1.1700   -2.1865   -0.3816 H   0  0  0  0  0  0  0  0  0  0  0  0
   -1.2854   -2.2675   -0.2011 H   0  0  0  0  0  0  0  0  0  0  0  0
  1  4  1  0  0  0  0
  1  2  1  0  0  0  0
  2  3  1  0  0  0  0
  5 12  1  0  0  0  0
  5  4  2  0  0  0  0
  6  5  1  0  0  0  0
  7  6  1  0  0  0  0
  8  7  1  0  0  0  0
  8 15  1  0  0  0  0
  9  6  2  0  0  0  0
  9 10  1  0  0  0  0
 10  1  2  0  0  0  0
 13  8  1  0  0  0  0
 14  8  1  0  0  0  0
 16  9  1  0  0  0  0
 17 10  1  0  0  0  0
M  RAD  4   2   2   3   3   4   2  11   2
M  END
