Coordinates from ORCA-job 4-MeOPhN2+_B3LYPG-6-31G_dp-d09-49-n800
 OpenBabel11261919463D

 17 16  0  0  0  0  0  0  0  0999 V2000
   -1.4235   -0.2138   -0.0475 C   0  0  0  0  0  0  0  0  0  0  0  0
   -2.7771   -0.2525    0.0536 N   0  0  0  0  0  0  0  0  0  0  0  0
   -3.8936   -0.2828    0.1376 N   0  0  0  0  0  0  0  0  0  0  0  0
   -0.7428    1.0102   -0.0141 C   0  0  0  0  0  0  0  0  0  0  0  0
    0.5989    1.1121   -0.1088 C   0  0  0  0  0  0  0  0  0  0  0  0
    1.3504   -0.1020   -0.2498 C   0  0  0  0  0  0  0  0  0  0  0  0
    2.6550    0.0518   -0.3364 O   0  0  0  0  0  0  0  0  0  0  0  0
    3.5381   -1.0846   -0.4797 C   0  0  0  0  0  0  0  0  0  0  0  0
    0.6808   -1.3587   -0.2870 C   0  0  0  0  0  0  0  0  0  0  0  0
   -0.6890   -1.4264   -0.1879 C   0  0  0  0  0  0  0  0  0  0  0  0
   -2.8400    4.1913    0.3615 H   0  0  0  0  0  0  0  0  0  0  0  0
    1.1428    2.0532   -0.0844 H   0  0  0  0  0  0  0  0  0  0  0  0
    4.5390   -0.6600   -0.5197 H   0  0  0  0  0  0  0  0  0  0  0  0
    3.3213   -1.6193   -1.4085 H   0  0  0  0  0  0  0  0  0  0  0  0
    3.4465   -1.7476    0.3849 H   0  0  0  0  0  0  0  0  0  0  0  0
    1.2468   -2.2753   -0.3940 H   0  0  0  0  0  0  0  0  0  0  0  0
   -1.2086   -2.3804   -0.2153 H   0  0  0  0  0  0  0  0  0  0  0  0
  1  4  1  0  0  0  0
  1  2  1  0  0  0  0
  2  3  1  0  0  0  0
  5 12  1  0  0  0  0
  5  4  2  0  0  0  0
  6  5  1  0  0  0  0
  7  6  1  0  0  0  0
  8  7  1  0  0  0  0
  8 15  1  0  0  0  0
  9  6  2  0  0  0  0
  9 10  1  0  0  0  0
 10  1  2  0  0  0  0
 13  8  1  0  0  0  0
 14  8  1  0  0  0  0
 16  9  1  0  0  0  0
 17 10  1  0  0  0  0
M  RAD  4   2   2   3   3   4   2  11   2
M  END
