Coordinates from ORCA-job 4-MeOPhN2+_B3LYPG-6-31G_dp-d09-49-n800
 OpenBabel11261919463D

 17 16  0  0  0  0  0  0  0  0999 V2000
   -1.4760   -0.1131   -0.0369 C   0  0  0  0  0  0  0  0  0  0  0  0
   -2.8263   -0.1385    0.0648 N   0  0  0  0  0  0  0  0  0  0  0  0
   -3.9430   -0.1565    0.1491 N   0  0  0  0  0  0  0  0  0  0  0  0
   -0.7911    1.1159   -0.0039 C   0  0  0  0  0  0  0  0  0  0  0  0
    0.5584    1.1969   -0.1007 C   0  0  0  0  0  0  0  0  0  0  0  0
    1.2944   -0.0206   -0.2404 C   0  0  0  0  0  0  0  0  0  0  0  0
    2.6007    0.1249   -0.3279 O   0  0  0  0  0  0  0  0  0  0  0  0
    3.4750   -1.0175   -0.4701 C   0  0  0  0  0  0  0  0  0  0  0  0
    0.6187   -1.2722   -0.2763 C   0  0  0  0  0  0  0  0  0  0  0  0
   -0.7528   -1.3279   -0.1761 C   0  0  0  0  0  0  0  0  0  0  0  0
   -1.9235    2.7903    0.1978 H   0  0  0  0  0  0  0  0  0  0  0  0
    1.0996    2.1358   -0.0763 H   0  0  0  0  0  0  0  0  0  0  0  0
    4.4789   -0.6002   -0.5111 H   0  0  0  0  0  0  0  0  0  0  0  0
    3.2546   -1.5521   -1.3981 H   0  0  0  0  0  0  0  0  0  0  0  0
    3.3796   -1.6790    0.3953 H   0  0  0  0  0  0  0  0  0  0  0  0
    1.1765   -2.1938   -0.3827 H   0  0  0  0  0  0  0  0  0  0  0  0
   -1.2787   -2.2770   -0.2022 H   0  0  0  0  0  0  0  0  0  0  0  0
  1  4  1  0  0  0  0
  1  2  1  0  0  0  0
  2  3  1  0  0  0  0
  5 12  1  0  0  0  0
  5  4  2  0  0  0  0
  6  5  1  0  0  0  0
  7  6  1  0  0  0  0
  8  7  1  0  0  0  0
  8 15  1  0  0  0  0
  9  6  2  0  0  0  0
  9 10  1  0  0  0  0
 10  1  2  0  0  0  0
 13  8  1  0  0  0  0
 14  8  1  0  0  0  0
 16  9  1  0  0  0  0
 17 10  1  0  0  0  0
M  RAD  4   2   2   3   3   4   2  11   2
M  END
