Coordinates from ORCA-job 4-MeOPhN2+_B3LYPG-6-31G_dp-d09-49-n800
 OpenBabel11261919463D

 17 16  0  0  0  0  0  0  0  0999 V2000
   -1.4822   -0.0983   -0.0355 C   0  0  0  0  0  0  0  0  0  0  0  0
   -2.8328   -0.1288    0.0659 N   0  0  0  0  0  0  0  0  0  0  0  0
   -3.9498   -0.1506    0.1499 N   0  0  0  0  0  0  0  0  0  0  0  0
   -0.8068    1.1403   -0.0011 C   0  0  0  0  0  0  0  0  0  0  0  0
    0.5478    1.2066   -0.0992 C   0  0  0  0  0  0  0  0  0  0  0  0
    1.2835   -0.0085   -0.2386 C   0  0  0  0  0  0  0  0  0  0  0  0
    2.5904    0.1374   -0.3261 O   0  0  0  0  0  0  0  0  0  0  0  0
    3.4640   -1.0050   -0.4684 C   0  0  0  0  0  0  0  0  0  0  0  0
    0.6094   -1.2602   -0.2746 C   0  0  0  0  0  0  0  0  0  0  0  0
   -0.7623   -1.3134   -0.1744 C   0  0  0  0  0  0  0  0  0  0  0  0
   -1.7635    2.5907    0.1720 H   0  0  0  0  0  0  0  0  0  0  0  0
    1.0903    2.1442   -0.0750 H   0  0  0  0  0  0  0  0  0  0  0  0
    4.4682   -0.5884   -0.5095 H   0  0  0  0  0  0  0  0  0  0  0  0
    3.2435   -1.5398   -1.3964 H   0  0  0  0  0  0  0  0  0  0  0  0
    3.3687   -1.6669    0.3968 H   0  0  0  0  0  0  0  0  0  0  0  0
    1.1663   -2.1823   -0.3810 H   0  0  0  0  0  0  0  0  0  0  0  0
   -1.2894   -2.2616   -0.2003 H   0  0  0  0  0  0  0  0  0  0  0  0
  1  4  1  0  0  0  0
  1  2  1  0  0  0  0
  2  3  1  0  0  0  0
  5 12  1  0  0  0  0
  5  4  2  0  0  0  0
  6  5  1  0  0  0  0
  7  6  1  0  0  0  0
  8  7  1  0  0  0  0
  8 15  1  0  0  0  0
  9  6  2  0  0  0  0
  9 10  1  0  0  0  0
 10  1  2  0  0  0  0
 13  8  1  0  0  0  0
 14  8  1  0  0  0  0
 16  9  1  0  0  0  0
 17 10  1  0  0  0  0
M  RAD  4   2   2   3   3   4   2  11   2
M  END
