Coordinates from ORCA-job 4-MeOPhN2+_B3LYPG-6-31G_dp-d09-49-n800
 OpenBabel11261919463D

 17 16  0  0  0  0  0  0  0  0999 V2000
   -1.4236   -0.3109   -0.0538 C   0  0  0  0  0  0  0  0  0  0  0  0
   -2.7773   -0.3822    0.0449 N   0  0  0  0  0  0  0  0  0  0  0  0
   -3.8931   -0.4374    0.1264 N   0  0  0  0  0  0  0  0  0  0  0  0
   -0.7774    0.9317   -0.0162 C   0  0  0  0  0  0  0  0  0  0  0  0
    0.5638    1.0578   -0.1092 C   0  0  0  0  0  0  0  0  0  0  0  0
    1.3435   -0.1373   -0.2513 C   0  0  0  0  0  0  0  0  0  0  0  0
    2.6455    0.0460   -0.3358 O   0  0  0  0  0  0  0  0  0  0  0  0
    3.5528   -1.0701   -0.4802 C   0  0  0  0  0  0  0  0  0  0  0  0
    0.7038   -1.4093   -0.2921 C   0  0  0  0  0  0  0  0  0  0  0  0
   -0.6642   -1.5079   -0.1952 C   0  0  0  0  0  0  0  0  0  0  0  0
   -2.9158    4.9806    0.4200 H   0  0  0  0  0  0  0  0  0  0  0  0
    1.0897    2.0096   -0.0825 H   0  0  0  0  0  0  0  0  0  0  0  0
    4.5445   -0.6243   -0.5181 H   0  0  0  0  0  0  0  0  0  0  0  0
    3.3493   -1.6080   -1.4103 H   0  0  0  0  0  0  0  0  0  0  0  0
    3.4750   -1.7373    0.3826 H   0  0  0  0  0  0  0  0  0  0  0  0
    1.2910   -2.3124   -0.3996 H   0  0  0  0  0  0  0  0  0  0  0  0
   -1.1626   -2.4732   -0.2252 H   0  0  0  0  0  0  0  0  0  0  0  0
  1  4  1  0  0  0  0
  1  2  1  0  0  0  0
  2  3  1  0  0  0  0
  5 12  1  0  0  0  0
  5  4  2  0  0  0  0
  6  5  1  0  0  0  0
  7  6  1  0  0  0  0
  8  7  1  0  0  0  0
  8 15  1  0  0  0  0
  9  6  2  0  0  0  0
  9 10  1  0  0  0  0
 10  1  2  0  0  0  0
 13  8  1  0  0  0  0
 14  8  1  0  0  0  0
 16  9  1  0  0  0  0
 17 10  1  0  0  0  0
M  RAD  4   2   2   3   3   4   2  11   2
M  END
