Coordinates from ORCA-job 4-MeOPhN2+_B3LYPG-6-31G_dp-d09-49-n800
 OpenBabel11261919463D

 17 16  0  0  0  0  0  0  0  0999 V2000
   -1.4613   -0.1366   -0.0397 C   0  0  0  0  0  0  0  0  0  0  0  0
   -2.8121   -0.1577    0.0623 N   0  0  0  0  0  0  0  0  0  0  0  0
   -3.9286   -0.1725    0.1468 N   0  0  0  0  0  0  0  0  0  0  0  0
   -0.7665    1.0821   -0.0083 C   0  0  0  0  0  0  0  0  0  0  0  0
    0.5771    1.1774   -0.1038 C   0  0  0  0  0  0  0  0  0  0  0  0
    1.3146   -0.0430   -0.2437 C   0  0  0  0  0  0  0  0  0  0  0  0
    2.6200    0.1017   -0.3311 O   0  0  0  0  0  0  0  0  0  0  0  0
    3.4952   -1.0411   -0.4731 C   0  0  0  0  0  0  0  0  0  0  0  0
    0.6363   -1.2942   -0.2792 C   0  0  0  0  0  0  0  0  0  0  0  0
   -0.7349   -1.3516   -0.1791 C   0  0  0  0  0  0  0  0  0  0  0  0
   -2.2205    3.1516    0.2462 H   0  0  0  0  0  0  0  0  0  0  0  0
    1.1192    2.1169   -0.0795 H   0  0  0  0  0  0  0  0  0  0  0  0
    4.4988   -0.6231   -0.5140 H   0  0  0  0  0  0  0  0  0  0  0  0
    3.2744   -1.5754   -1.4011 H   0  0  0  0  0  0  0  0  0  0  0  0
    3.3993   -1.7020    0.3926 H   0  0  0  0  0  0  0  0  0  0  0  0
    1.1946   -2.2155   -0.3855 H   0  0  0  0  0  0  0  0  0  0  0  0
   -1.2604   -2.3016   -0.2053 H   0  0  0  0  0  0  0  0  0  0  0  0
  1  4  1  0  0  0  0
  1  2  1  0  0  0  0
  2  3  1  0  0  0  0
  5 12  1  0  0  0  0
  5  4  2  0  0  0  0
  6  5  1  0  0  0  0
  7  6  1  0  0  0  0
  8  7  1  0  0  0  0
  8 15  1  0  0  0  0
  9  6  2  0  0  0  0
  9 10  1  0  0  0  0
 10  1  2  0  0  0  0
 13  8  1  0  0  0  0
 14  8  1  0  0  0  0
 16  9  1  0  0  0  0
 17 10  1  0  0  0  0
M  RAD  4   2   2   3   3   4   2  11   2
M  END
