Coordinates from ORCA-job 4-MeOPhN2+_B3LYPG-6-31G_dp-d09-49-n800
 OpenBabel11261919463D

 17 16  0  0  0  0  0  0  0  0999 V2000
   -1.4209   -0.2479   -0.0500 C   0  0  0  0  0  0  0  0  0  0  0  0
   -2.7747   -0.2977    0.0504 N   0  0  0  0  0  0  0  0  0  0  0  0
   -3.8911   -0.3364    0.1334 N   0  0  0  0  0  0  0  0  0  0  0  0
   -0.7523    0.9829   -0.0151 C   0  0  0  0  0  0  0  0  0  0  0  0
    0.5896    1.0912   -0.1094 C   0  0  0  0  0  0  0  0  0  0  0  0
    1.3504   -0.1166   -0.2507 C   0  0  0  0  0  0  0  0  0  0  0  0
    2.6543    0.0468   -0.3367 O   0  0  0  0  0  0  0  0  0  0  0  0
    3.5452   -1.0831   -0.4802 C   0  0  0  0  0  0  0  0  0  0  0  0
    0.6905   -1.3784   -0.2890 C   0  0  0  0  0  0  0  0  0  0  0  0
   -0.6787   -1.4558   -0.1907 C   0  0  0  0  0  0  0  0  0  0  0  0
   -2.9015    4.4973    0.3869 H   0  0  0  0  0  0  0  0  0  0  0  0
    1.1285    2.0355   -0.0844 H   0  0  0  0  0  0  0  0  0  0  0  0
    4.5432   -0.6517   -0.5195 H   0  0  0  0  0  0  0  0  0  0  0  0
    3.3328   -1.6189   -1.4094 H   0  0  0  0  0  0  0  0  0  0  0  0
    3.4581   -1.7476    0.3838 H   0  0  0  0  0  0  0  0  0  0  0  0
    1.2634   -2.2907   -0.3962 H   0  0  0  0  0  0  0  0  0  0  0  0
   -1.1918   -2.4134   -0.2188 H   0  0  0  0  0  0  0  0  0  0  0  0
  1  4  1  0  0  0  0
  1  2  1  0  0  0  0
  2  3  1  0  0  0  0
  5 12  1  0  0  0  0
  5  4  2  0  0  0  0
  6  5  1  0  0  0  0
  7  6  1  0  0  0  0
  8  7  1  0  0  0  0
  8 15  1  0  0  0  0
  9  6  2  0  0  0  0
  9 10  1  0  0  0  0
 10  1  2  0  0  0  0
 13  8  1  0  0  0  0
 14  8  1  0  0  0  0
 16  9  1  0  0  0  0
 17 10  1  0  0  0  0
M  RAD  4   2   2   3   3   4   2  11   2
M  END
