Coordinates from ORCA-job 4-MeOPhN2+_B3LYPG-6-31G_dp-d09-49-n800
 OpenBabel11261919463D

 17 16  0  0  0  0  0  0  0  0999 V2000
   -1.4209   -0.2472   -0.0499 C   0  0  0  0  0  0  0  0  0  0  0  0
   -2.7748   -0.2968    0.0505 N   0  0  0  0  0  0  0  0  0  0  0  0
   -3.8912   -0.3352    0.1334 N   0  0  0  0  0  0  0  0  0  0  0  0
   -0.7519    0.9832   -0.0151 C   0  0  0  0  0  0  0  0  0  0  0  0
    0.5899    1.0917   -0.1094 C   0  0  0  0  0  0  0  0  0  0  0  0
    1.3505   -0.1163   -0.2507 C   0  0  0  0  0  0  0  0  0  0  0  0
    2.6544    0.0468   -0.3367 O   0  0  0  0  0  0  0  0  0  0  0  0
    3.5451   -1.0833   -0.4803 C   0  0  0  0  0  0  0  0  0  0  0  0
    0.6904   -1.3780   -0.2890 C   0  0  0  0  0  0  0  0  0  0  0  0
   -0.6789   -1.4552   -0.1906 C   0  0  0  0  0  0  0  0  0  0  0  0
   -2.9011    4.4918    0.3866 H   0  0  0  0  0  0  0  0  0  0  0  0
    1.1288    2.0359   -0.0844 H   0  0  0  0  0  0  0  0  0  0  0  0
    4.5432   -0.6520   -0.5196 H   0  0  0  0  0  0  0  0  0  0  0  0
    3.3325   -1.6191   -1.4094 H   0  0  0  0  0  0  0  0  0  0  0  0
    3.4579   -1.7477    0.3838 H   0  0  0  0  0  0  0  0  0  0  0  0
    1.2631   -2.2904   -0.3961 H   0  0  0  0  0  0  0  0  0  0  0  0
   -1.1920   -2.4128   -0.2187 H   0  0  0  0  0  0  0  0  0  0  0  0
  1  4  1  0  0  0  0
  1  2  1  0  0  0  0
  2  3  1  0  0  0  0
  5 12  1  0  0  0  0
  5  4  2  0  0  0  0
  6  5  1  0  0  0  0
  7  6  1  0  0  0  0
  8  7  1  0  0  0  0
  8 15  1  0  0  0  0
  9  6  2  0  0  0  0
  9 10  1  0  0  0  0
 10  1  2  0  0  0  0
 13  8  1  0  0  0  0
 14  8  1  0  0  0  0
 16  9  1  0  0  0  0
 17 10  1  0  0  0  0
M  RAD  4   2   2   3   3   4   2  11   2
M  END
