Coordinates from ORCA-job 4-MeOPhN2+_B3LYPG-6-31G_dp-d09-49-n800
 OpenBabel11261919463D

 17 16  0  0  0  0  0  0  0  0999 V2000
   -1.4797   -0.1047   -0.0361 C   0  0  0  0  0  0  0  0  0  0  0  0
   -2.8302   -0.1328    0.0655 N   0  0  0  0  0  0  0  0  0  0  0  0
   -3.9470   -0.1530    0.1496 N   0  0  0  0  0  0  0  0  0  0  0  0
   -0.8000    1.1296   -0.0023 C   0  0  0  0  0  0  0  0  0  0  0  0
    0.5523    1.2026   -0.0998 C   0  0  0  0  0  0  0  0  0  0  0  0
    1.2880   -0.0135   -0.2394 C   0  0  0  0  0  0  0  0  0  0  0  0
    2.5947    0.1322   -0.3268 O   0  0  0  0  0  0  0  0  0  0  0  0
    3.4686   -1.0102   -0.4691 C   0  0  0  0  0  0  0  0  0  0  0  0
    0.6133   -1.2652   -0.2753 C   0  0  0  0  0  0  0  0  0  0  0  0
   -0.7584   -1.3196   -0.1751 C   0  0  0  0  0  0  0  0  0  0  0  0
   -1.8302    2.6747    0.1827 H   0  0  0  0  0  0  0  0  0  0  0  0
    1.0940    2.1409   -0.0755 H   0  0  0  0  0  0  0  0  0  0  0  0
    4.4727   -0.5933   -0.5101 H   0  0  0  0  0  0  0  0  0  0  0  0
    3.2481   -1.5449   -1.3971 H   0  0  0  0  0  0  0  0  0  0  0  0
    3.3732   -1.6720    0.3961 H   0  0  0  0  0  0  0  0  0  0  0  0
    1.1706   -2.1871   -0.3817 H   0  0  0  0  0  0  0  0  0  0  0  0
   -1.2848   -2.2683   -0.2012 H   0  0  0  0  0  0  0  0  0  0  0  0
  1  4  1  0  0  0  0
  1  2  1  0  0  0  0
  2  3  1  0  0  0  0
  5 12  1  0  0  0  0
  5  4  2  0  0  0  0
  6  5  1  0  0  0  0
  7  6  1  0  0  0  0
  8  7  1  0  0  0  0
  8 15  1  0  0  0  0
  9  6  2  0  0  0  0
  9 10  1  0  0  0  0
 10  1  2  0  0  0  0
 13  8  1  0  0  0  0
 14  8  1  0  0  0  0
 16  9  1  0  0  0  0
 17 10  1  0  0  0  0
M  RAD  4   2   2   3   3   4   2  11   2
M  END
