Coordinates from ORCA-job 4-MeOPhN2+_B3LYPG-6-31G_dp-d09-49-n800
 OpenBabel11261919463D

 17 16  0  0  0  0  0  0  0  0999 V2000
   -1.4734   -0.1183   -0.0374 C   0  0  0  0  0  0  0  0  0  0  0  0
   -2.8237   -0.1422    0.0644 N   0  0  0  0  0  0  0  0  0  0  0  0
   -3.9403   -0.1591    0.1487 N   0  0  0  0  0  0  0  0  0  0  0  0
   -0.7856    1.1080   -0.0049 C   0  0  0  0  0  0  0  0  0  0  0  0
    0.5623    1.1932   -0.1013 C   0  0  0  0  0  0  0  0  0  0  0  0
    1.2986   -0.0251   -0.2411 C   0  0  0  0  0  0  0  0  0  0  0  0
    2.6046    0.1202   -0.3286 O   0  0  0  0  0  0  0  0  0  0  0  0
    3.4792   -1.0223   -0.4707 C   0  0  0  0  0  0  0  0  0  0  0  0
    0.6223   -1.2767   -0.2769 C   0  0  0  0  0  0  0  0  0  0  0  0
   -0.7492   -1.3329   -0.1767 C   0  0  0  0  0  0  0  0  0  0  0  0
   -1.9838    2.8641    0.2077 H   0  0  0  0  0  0  0  0  0  0  0  0
    1.1034    2.1323   -0.0769 H   0  0  0  0  0  0  0  0  0  0  0  0
    4.4830   -0.6047   -0.5117 H   0  0  0  0  0  0  0  0  0  0  0  0
    3.2587   -1.5568   -1.3987 H   0  0  0  0  0  0  0  0  0  0  0  0
    3.3837   -1.6836    0.3948 H   0  0  0  0  0  0  0  0  0  0  0  0
    1.1802   -2.1982   -0.3833 H   0  0  0  0  0  0  0  0  0  0  0  0
   -1.2749   -2.2824   -0.2029 H   0  0  0  0  0  0  0  0  0  0  0  0
  1  4  1  0  0  0  0
  1  2  1  0  0  0  0
  2  3  1  0  0  0  0
  5 12  1  0  0  0  0
  5  4  2  0  0  0  0
  6  5  1  0  0  0  0
  7  6  1  0  0  0  0
  8  7  1  0  0  0  0
  8 15  1  0  0  0  0
  9  6  2  0  0  0  0
  9 10  1  0  0  0  0
 10  1  2  0  0  0  0
 13  8  1  0  0  0  0
 14  8  1  0  0  0  0
 16  9  1  0  0  0  0
 17 10  1  0  0  0  0
M  RAD  4   2   2   3   3   4   2  11   2
M  END
