Coordinates from ORCA-job 4-MeOPhN2+_B3LYPG-6-31G_dp-d09-49-n800
 OpenBabel11261919463D

 17 16  0  0  0  0  0  0  0  0999 V2000
   -1.4494   -0.1508   -0.0416 C   0  0  0  0  0  0  0  0  0  0  0  0
   -2.8009   -0.1726    0.0602 N   0  0  0  0  0  0  0  0  0  0  0  0
   -3.9174   -0.1884    0.1445 N   0  0  0  0  0  0  0  0  0  0  0  0
   -0.7527    1.0653   -0.0107 C   0  0  0  0  0  0  0  0  0  0  0  0
    0.5890    1.1629   -0.1058 C   0  0  0  0  0  0  0  0  0  0  0  0
    1.3279   -0.0582   -0.2457 C   0  0  0  0  0  0  0  0  0  0  0  0
    2.6330    0.0860   -0.3332 O   0  0  0  0  0  0  0  0  0  0  0  0
    3.5082   -1.0571   -0.4752 C   0  0  0  0  0  0  0  0  0  0  0  0
    0.6484   -1.3093   -0.2810 C   0  0  0  0  0  0  0  0  0  0  0  0
   -0.7225   -1.3667   -0.1810 C   0  0  0  0  0  0  0  0  0  0  0  0
   -2.4211    3.3979    0.2790 H   0  0  0  0  0  0  0  0  0  0  0  0
    1.1334    2.1020   -0.0819 H   0  0  0  0  0  0  0  0  0  0  0  0
    4.5118   -0.6391   -0.5162 H   0  0  0  0  0  0  0  0  0  0  0  0
    3.2871   -1.5912   -1.4032 H   0  0  0  0  0  0  0  0  0  0  0  0
    3.4122   -1.7179    0.3906 H   0  0  0  0  0  0  0  0  0  0  0  0
    1.2067   -2.2306   -0.3872 H   0  0  0  0  0  0  0  0  0  0  0  0
   -1.2485   -2.3168   -0.2071 H   0  0  0  0  0  0  0  0  0  0  0  0
  1  4  1  0  0  0  0
  1  2  1  0  0  0  0
  2  3  1  0  0  0  0
  5 12  1  0  0  0  0
  5  4  2  0  0  0  0
  6  5  1  0  0  0  0
  7  6  1  0  0  0  0
  8  7  1  0  0  0  0
  8 15  1  0  0  0  0
  9  6  2  0  0  0  0
  9 10  1  0  0  0  0
 10  1  2  0  0  0  0
 13  8  1  0  0  0  0
 14  8  1  0  0  0  0
 16  9  1  0  0  0  0
 17 10  1  0  0  0  0
M  RAD  4   2   2   3   3   4   2  11   2
M  END
