Coordinates from ORCA-job 4-MeOPhN2+_B3LYPG-6-31G_dp-d09-49-n800
 OpenBabel11261919463D

 17 16  0  0  0  0  0  0  0  0999 V2000
   -1.4209   -0.2567   -0.0504 C   0  0  0  0  0  0  0  0  0  0  0  0
   -2.7748   -0.3095    0.0498 N   0  0  0  0  0  0  0  0  0  0  0  0
   -3.8911   -0.3504    0.1323 N   0  0  0  0  0  0  0  0  0  0  0  0
   -0.7554    0.9757   -0.0152 C   0  0  0  0  0  0  0  0  0  0  0  0
    0.5864    1.0862   -0.1093 C   0  0  0  0  0  0  0  0  0  0  0  0
    1.3498   -0.1198   -0.2508 C   0  0  0  0  0  0  0  0  0  0  0  0
    2.6535    0.0462   -0.3366 O   0  0  0  0  0  0  0  0  0  0  0  0
    3.5466   -1.0818   -0.4804 C   0  0  0  0  0  0  0  0  0  0  0  0
    0.6926   -1.3831   -0.2895 C   0  0  0  0  0  0  0  0  0  0  0  0
   -0.6765   -1.4632   -0.1913 C   0  0  0  0  0  0  0  0  0  0  0  0
   -2.9086    4.5694    0.3920 H   0  0  0  0  0  0  0  0  0  0  0  0
    1.1237    2.0315   -0.0840 H   0  0  0  0  0  0  0  0  0  0  0  0
    4.5437   -0.6485   -0.5194 H   0  0  0  0  0  0  0  0  0  0  0  0
    3.3353   -1.6179   -1.4097 H   0  0  0  0  0  0  0  0  0  0  0  0
    3.4607   -1.7467    0.3834 H   0  0  0  0  0  0  0  0  0  0  0  0
    1.2674   -2.2941   -0.3967 H   0  0  0  0  0  0  0  0  0  0  0  0
   -1.1876   -2.4218   -0.2197 H   0  0  0  0  0  0  0  0  0  0  0  0
  1  4  1  0  0  0  0
  1  2  1  0  0  0  0
  2  3  1  0  0  0  0
  5 12  1  0  0  0  0
  5  4  2  0  0  0  0
  6  5  1  0  0  0  0
  7  6  1  0  0  0  0
  8  7  1  0  0  0  0
  8 15  1  0  0  0  0
  9  6  2  0  0  0  0
  9 10  1  0  0  0  0
 10  1  2  0  0  0  0
 13  8  1  0  0  0  0
 14  8  1  0  0  0  0
 16  9  1  0  0  0  0
 17 10  1  0  0  0  0
M  RAD  4   2   2   3   3   4   2  11   2
M  END
