Coordinates from ORCA-job 4-MeOPhN2+_B3LYPG-6-31G_dp-d09-49-n800
 OpenBabel11261919463D

 17 17  0  0  0  0  0  0  0  0999 V2000
   -1.4920   -0.0652   -0.0323 C   0  0  0  0  0  0  0  0  0  0  0  0
   -2.8446   -0.1070    0.0677 N   0  0  0  0  0  0  0  0  0  0  0  0
   -3.9620   -0.1371    0.1506 N   0  0  0  0  0  0  0  0  0  0  0  0
   -0.8380    1.1949    0.0052 C   0  0  0  0  0  0  0  0  0  0  0  0
    0.5272    1.2237   -0.0960 C   0  0  0  0  0  0  0  0  0  0  0  0
    1.2640    0.0138   -0.2350 C   0  0  0  0  0  0  0  0  0  0  0  0
    2.5718    0.1608   -0.3226 O   0  0  0  0  0  0  0  0  0  0  0  0
    3.4442   -0.9814   -0.4657 C   0  0  0  0  0  0  0  0  0  0  0  0
    0.5914   -1.2366   -0.2710 C   0  0  0  0  0  0  0  0  0  0  0  0
   -0.7808   -1.2823   -0.1704 C   0  0  0  0  0  0  0  0  0  0  0  0
   -1.4655    2.1878    0.1213 H   0  0  0  0  0  0  0  0  0  0  0  0
    1.0748    2.1588   -0.0726 H   0  0  0  0  0  0  0  0  0  0  0  0
    4.4489   -0.5661   -0.5073 H   0  0  0  0  0  0  0  0  0  0  0  0
    3.2231   -1.5163   -1.3936 H   0  0  0  0  0  0  0  0  0  0  0  0
    3.3493   -1.6441    0.3990 H   0  0  0  0  0  0  0  0  0  0  0  0
    1.1451   -2.1607   -0.3771 H   0  0  0  0  0  0  0  0  0  0  0  0
   -1.3121   -2.2276   -0.1958 H   0  0  0  0  0  0  0  0  0  0  0  0
  1  4  1  0  0  0  0
  1  2  1  0  0  0  0
  2  3  1  0  0  0  0
  4 11  1  0  0  0  0
  5 12  1  0  0  0  0
  5  4  2  0  0  0  0
  6  5  1  0  0  0  0
  7  6  1  0  0  0  0
  8  7  1  0  0  0  0
  8 15  1  0  0  0  0
  9  6  2  0  0  0  0
  9 10  1  0  0  0  0
 10  1  2  0  0  0  0
 13  8  1  0  0  0  0
 14  8  1  0  0  0  0
 16  9  1  0  0  0  0
 17 10  1  0  0  0  0
M  RAD  2   2   2   3   3
M  END
