Coordinates from ORCA-job 4-MeOPhN2+_B3LYPG-6-31G_dp-d09-49-n800
 OpenBabel11261919463D

 17 16  0  0  0  0  0  0  0  0999 V2000
   -1.4246   -0.3239   -0.0547 C   0  0  0  0  0  0  0  0  0  0  0  0
   -2.7782   -0.3997    0.0437 N   0  0  0  0  0  0  0  0  0  0  0  0
   -3.8939   -0.4582    0.1249 N   0  0  0  0  0  0  0  0  0  0  0  0
   -0.7828    0.9210   -0.0167 C   0  0  0  0  0  0  0  0  0  0  0  0
    0.5581    1.0512   -0.1093 C   0  0  0  0  0  0  0  0  0  0  0  0
    1.3418   -0.1412   -0.2515 C   0  0  0  0  0  0  0  0  0  0  0  0
    2.6432    0.0463   -0.3357 O   0  0  0  0  0  0  0  0  0  0  0  0
    3.5540   -1.0669   -0.4801 C   0  0  0  0  0  0  0  0  0  0  0  0
    0.7062   -1.4153   -0.2926 C   0  0  0  0  0  0  0  0  0  0  0  0
   -0.6614   -1.5185   -0.1961 C   0  0  0  0  0  0  0  0  0  0  0  0
   -2.9134    5.0752    0.4266 H   0  0  0  0  0  0  0  0  0  0  0  0
    1.0810    2.0047   -0.0823 H   0  0  0  0  0  0  0  0  0  0  0  0
    4.5444   -0.6180   -0.5177 H   0  0  0  0  0  0  0  0  0  0  0  0
    3.3524   -1.6053   -1.4102 H   0  0  0  0  0  0  0  0  0  0  0  0
    3.4782   -1.7345    0.3826 H   0  0  0  0  0  0  0  0  0  0  0  0
    1.2965   -2.3164   -0.4000 H   0  0  0  0  0  0  0  0  0  0  0  0
   -1.1566   -2.4854   -0.2263 H   0  0  0  0  0  0  0  0  0  0  0  0
  1  4  1  0  0  0  0
  1  2  1  0  0  0  0
  2  3  1  0  0  0  0
  5 12  1  0  0  0  0
  5  4  2  0  0  0  0
  6  5  1  0  0  0  0
  7  6  1  0  0  0  0
  8  7  1  0  0  0  0
  8 15  1  0  0  0  0
  9  6  2  0  0  0  0
  9 10  1  0  0  0  0
 10  1  2  0  0  0  0
 13  8  1  0  0  0  0
 14  8  1  0  0  0  0
 16  9  1  0  0  0  0
 17 10  1  0  0  0  0
M  RAD  4   2   2   3   3   4   2  11   2
M  END
