Coordinates from ORCA-job 4-MeOPhN2+_B3LYPG-6-31G_dp-d09-49-n800
 OpenBabel11261919463D

 17 16  0  0  0  0  0  0  0  0999 V2000
   -1.4821   -0.0986   -0.0355 C   0  0  0  0  0  0  0  0  0  0  0  0
   -2.8327   -0.1289    0.0659 N   0  0  0  0  0  0  0  0  0  0  0  0
   -3.9497   -0.1507    0.1499 N   0  0  0  0  0  0  0  0  0  0  0  0
   -0.8065    1.1399   -0.0011 C   0  0  0  0  0  0  0  0  0  0  0  0
    0.5480    1.2064   -0.0992 C   0  0  0  0  0  0  0  0  0  0  0  0
    1.2837   -0.0087   -0.2387 C   0  0  0  0  0  0  0  0  0  0  0  0
    2.5906    0.1372   -0.3261 O   0  0  0  0  0  0  0  0  0  0  0  0
    3.4641   -1.0052   -0.4684 C   0  0  0  0  0  0  0  0  0  0  0  0
    0.6095   -1.2604   -0.2747 C   0  0  0  0  0  0  0  0  0  0  0  0
   -0.7622   -1.3137   -0.1744 C   0  0  0  0  0  0  0  0  0  0  0  0
   -1.7663    2.5942    0.1724 H   0  0  0  0  0  0  0  0  0  0  0  0
    1.0904    2.1441   -0.0751 H   0  0  0  0  0  0  0  0  0  0  0  0
    4.4684   -0.5886   -0.5095 H   0  0  0  0  0  0  0  0  0  0  0  0
    3.2437   -1.5400   -1.3964 H   0  0  0  0  0  0  0  0  0  0  0  0
    3.3689   -1.6671    0.3967 H   0  0  0  0  0  0  0  0  0  0  0  0
    1.1664   -2.1825   -0.3810 H   0  0  0  0  0  0  0  0  0  0  0  0
   -1.2892   -2.2619   -0.2004 H   0  0  0  0  0  0  0  0  0  0  0  0
  1  4  1  0  0  0  0
  1  2  1  0  0  0  0
  2  3  1  0  0  0  0
  5 12  1  0  0  0  0
  5  4  2  0  0  0  0
  6  5  1  0  0  0  0
  7  6  1  0  0  0  0
  8  7  1  0  0  0  0
  8 15  1  0  0  0  0
  9  6  2  0  0  0  0
  9 10  1  0  0  0  0
 10  1  2  0  0  0  0
 13  8  1  0  0  0  0
 14  8  1  0  0  0  0
 16  9  1  0  0  0  0
 17 10  1  0  0  0  0
M  RAD  4   2   2   3   3   4   2  11   2
M  END
