Coordinates from ORCA-job 4-MeOPhN2+_B3LYPG-6-31G_dp-d09-49-n800
 OpenBabel11261919463D

 17 16  0  0  0  0  0  0  0  0999 V2000
   -1.4736   -0.1178   -0.0374 C   0  0  0  0  0  0  0  0  0  0  0  0
   -2.8240   -0.1418    0.0644 N   0  0  0  0  0  0  0  0  0  0  0  0
   -3.9406   -0.1589    0.1487 N   0  0  0  0  0  0  0  0  0  0  0  0
   -0.7861    1.1087   -0.0048 C   0  0  0  0  0  0  0  0  0  0  0  0
    0.5620    1.1935   -0.1013 C   0  0  0  0  0  0  0  0  0  0  0  0
    1.2982   -0.0247   -0.2411 C   0  0  0  0  0  0  0  0  0  0  0  0
    2.6042    0.1207   -0.3285 O   0  0  0  0  0  0  0  0  0  0  0  0
    3.4788   -1.0218   -0.4706 C   0  0  0  0  0  0  0  0  0  0  0  0
    0.6219   -1.2763   -0.2768 C   0  0  0  0  0  0  0  0  0  0  0  0
   -0.7496   -1.3325   -0.1767 C   0  0  0  0  0  0  0  0  0  0  0  0
   -1.9780    2.8570    0.2067 H   0  0  0  0  0  0  0  0  0  0  0  0
    1.1030    2.1326   -0.0768 H   0  0  0  0  0  0  0  0  0  0  0  0
    4.4826   -0.6043   -0.5116 H   0  0  0  0  0  0  0  0  0  0  0  0
    3.2583   -1.5564   -1.3986 H   0  0  0  0  0  0  0  0  0  0  0  0
    3.3833   -1.6832    0.3949 H   0  0  0  0  0  0  0  0  0  0  0  0
    1.1798   -2.1978   -0.3832 H   0  0  0  0  0  0  0  0  0  0  0  0
   -1.2753   -2.2819   -0.2028 H   0  0  0  0  0  0  0  0  0  0  0  0
  1  4  1  0  0  0  0
  1  2  1  0  0  0  0
  2  3  1  0  0  0  0
  5 12  1  0  0  0  0
  5  4  2  0  0  0  0
  6  5  1  0  0  0  0
  7  6  1  0  0  0  0
  8  7  1  0  0  0  0
  8 15  1  0  0  0  0
  9  6  2  0  0  0  0
  9 10  1  0  0  0  0
 10  1  2  0  0  0  0
 13  8  1  0  0  0  0
 14  8  1  0  0  0  0
 16  9  1  0  0  0  0
 17 10  1  0  0  0  0
M  RAD  4   2   2   3   3   4   2  11   2
M  END
