Coordinates from ORCA-job 4-MeOPhN2+_B3LYPG-6-31G_dp-d09-49-n800
 OpenBabel11261919463D

 17 16  0  0  0  0  0  0  0  0999 V2000
   -1.4209   -0.2485   -0.0500 C   0  0  0  0  0  0  0  0  0  0  0  0
   -2.7748   -0.2984    0.0504 N   0  0  0  0  0  0  0  0  0  0  0  0
   -3.8911   -0.3372    0.1333 N   0  0  0  0  0  0  0  0  0  0  0  0
   -0.7524    0.9822   -0.0151 C   0  0  0  0  0  0  0  0  0  0  0  0
    0.5895    1.0909   -0.1094 C   0  0  0  0  0  0  0  0  0  0  0  0
    1.3504   -0.1168   -0.2507 C   0  0  0  0  0  0  0  0  0  0  0  0
    2.6543    0.0467   -0.3367 O   0  0  0  0  0  0  0  0  0  0  0  0
    3.5453   -1.0831   -0.4803 C   0  0  0  0  0  0  0  0  0  0  0  0
    0.6907   -1.3787   -0.2891 C   0  0  0  0  0  0  0  0  0  0  0  0
   -0.6786   -1.4563   -0.1907 C   0  0  0  0  0  0  0  0  0  0  0  0
   -2.9023    4.5020    0.3873 H   0  0  0  0  0  0  0  0  0  0  0  0
    1.1282    2.0353   -0.0843 H   0  0  0  0  0  0  0  0  0  0  0  0
    4.5433   -0.6516   -0.5196 H   0  0  0  0  0  0  0  0  0  0  0  0
    3.3329   -1.6189   -1.4094 H   0  0  0  0  0  0  0  0  0  0  0  0
    3.4582   -1.7476    0.3837 H   0  0  0  0  0  0  0  0  0  0  0  0
    1.2637   -2.2909   -0.3962 H   0  0  0  0  0  0  0  0  0  0  0  0
   -1.1915   -2.4140   -0.2189 H   0  0  0  0  0  0  0  0  0  0  0  0
  1  4  1  0  0  0  0
  1  2  1  0  0  0  0
  2  3  1  0  0  0  0
  5 12  1  0  0  0  0
  5  4  2  0  0  0  0
  6  5  1  0  0  0  0
  7  6  1  0  0  0  0
  8  7  1  0  0  0  0
  8 15  1  0  0  0  0
  9  6  2  0  0  0  0
  9 10  1  0  0  0  0
 10  1  2  0  0  0  0
 13  8  1  0  0  0  0
 14  8  1  0  0  0  0
 16  9  1  0  0  0  0
 17 10  1  0  0  0  0
M  RAD  4   2   2   3   3   4   2  11   2
M  END
