Coordinates from ORCA-job 4-MeOPhN2+_B3LYPG-6-31G_dp-d09-49-n800
 OpenBabel11261919463D

 17 16  0  0  0  0  0  0  0  0999 V2000
   -1.4280   -0.3551   -0.0568 C   0  0  0  0  0  0  0  0  0  0  0  0
   -2.7811   -0.4422    0.0405 N   0  0  0  0  0  0  0  0  0  0  0  0
   -3.8963   -0.5096    0.1208 N   0  0  0  0  0  0  0  0  0  0  0  0
   -0.7977    0.8956   -0.0179 C   0  0  0  0  0  0  0  0  0  0  0  0
    0.5425    1.0359   -0.1097 C   0  0  0  0  0  0  0  0  0  0  0  0
    1.3362   -0.1497   -0.2518 C   0  0  0  0  0  0  0  0  0  0  0  0
    2.6363    0.0487   -0.3353 O   0  0  0  0  0  0  0  0  0  0  0  0
    3.5561   -1.0571   -0.4796 C   0  0  0  0  0  0  0  0  0  0  0  0
    0.7115   -1.4291   -0.2936 C   0  0  0  0  0  0  0  0  0  0  0  0
   -0.6553   -1.5435   -0.1980 C   0  0  0  0  0  0  0  0  0  0  0  0
   -2.8916    5.2907    0.4412 H   0  0  0  0  0  0  0  0  0  0  0  0
    1.0580    1.9935   -0.0821 H   0  0  0  0  0  0  0  0  0  0  0  0
    4.5428   -0.6003   -0.5165 H   0  0  0  0  0  0  0  0  0  0  0  0
    3.3593   -1.5969   -1.4099 H   0  0  0  0  0  0  0  0  0  0  0  0
    3.4854   -1.7256    0.3829 H   0  0  0  0  0  0  0  0  0  0  0  0
    1.3093   -2.3252   -0.4008 H   0  0  0  0  0  0  0  0  0  0  0  0
   -1.1425   -2.5145   -0.2287 H   0  0  0  0  0  0  0  0  0  0  0  0
  1  4  1  0  0  0  0
  1  2  1  0  0  0  0
  2  3  1  0  0  0  0
  5 12  1  0  0  0  0
  5  4  2  0  0  0  0
  6  5  1  0  0  0  0
  7  6  1  0  0  0  0
  8  7  1  0  0  0  0
  8 15  1  0  0  0  0
  9  6  2  0  0  0  0
  9 10  1  0  0  0  0
 10  1  2  0  0  0  0
 13  8  1  0  0  0  0
 14  8  1  0  0  0  0
 16  9  1  0  0  0  0
 17 10  1  0  0  0  0
M  RAD  4   2   2   3   3   4   2  11   2
M  END
