Coordinates from ORCA-job 4-MeOPhN2+_B3LYPG-6-31G_dp-d09-49-n800
 OpenBabel11261919463D

 17 16  0  0  0  0  0  0  0  0999 V2000
   -1.4269   -0.1964   -0.0461 C   0  0  0  0  0  0  0  0  0  0  0  0
   -2.7802   -0.2299    0.0554 N   0  0  0  0  0  0  0  0  0  0  0  0
   -3.8968   -0.2560    0.1390 N   0  0  0  0  0  0  0  0  0  0  0  0
   -0.7409    1.0247   -0.0134 C   0  0  0  0  0  0  0  0  0  0  0  0
    0.6007    1.1236   -0.1083 C   0  0  0  0  0  0  0  0  0  0  0  0
    1.3480   -0.0930   -0.2490 C   0  0  0  0  0  0  0  0  0  0  0  0
    2.6528    0.0570   -0.3360 O   0  0  0  0  0  0  0  0  0  0  0  0
    3.5328   -1.0820   -0.4791 C   0  0  0  0  0  0  0  0  0  0  0  0
    0.6744   -1.3476   -0.2856 C   0  0  0  0  0  0  0  0  0  0  0  0
   -0.6957   -1.4109   -0.1862 C   0  0  0  0  0  0  0  0  0  0  0  0
   -2.7776    4.0121    0.3452 H   0  0  0  0  0  0  0  0  0  0  0  0
    1.1465    2.0635   -0.0842 H   0  0  0  0  0  0  0  0  0  0  0  0
    4.5348   -0.6600   -0.5195 H   0  0  0  0  0  0  0  0  0  0  0  0
    3.3143   -1.6163   -1.4077 H   0  0  0  0  0  0  0  0  0  0  0  0
    3.4396   -1.7444    0.3858 H   0  0  0  0  0  0  0  0  0  0  0  0
    1.2374   -2.2660   -0.3925 H   0  0  0  0  0  0  0  0  0  0  0  0
   -1.2183   -2.3632   -0.2131 H   0  0  0  0  0  0  0  0  0  0  0  0
  1  4  1  0  0  0  0
  1  2  1  0  0  0  0
  2  3  1  0  0  0  0
  5 12  1  0  0  0  0
  5  4  2  0  0  0  0
  6  5  1  0  0  0  0
  7  6  1  0  0  0  0
  8  7  1  0  0  0  0
  8 15  1  0  0  0  0
  9  6  2  0  0  0  0
  9 10  1  0  0  0  0
 10  1  2  0  0  0  0
 13  8  1  0  0  0  0
 14  8  1  0  0  0  0
 16  9  1  0  0  0  0
 17 10  1  0  0  0  0
M  RAD  4   2   2   3   3   4   2  11   2
M  END
