Coordinates from ORCA-job 4-MeOPhN2+_B3LYPG-6-31G_dp-d09-49-n800
 OpenBabel11261919463D

 17 16  0  0  0  0  0  0  0  0999 V2000
   -1.4622   -0.1355   -0.0395 C   0  0  0  0  0  0  0  0  0  0  0  0
   -2.8129   -0.1567    0.0625 N   0  0  0  0  0  0  0  0  0  0  0  0
   -3.9294   -0.1715    0.1469 N   0  0  0  0  0  0  0  0  0  0  0  0
   -0.7675    1.0835   -0.0081 C   0  0  0  0  0  0  0  0  0  0  0  0
    0.5762    1.1784   -0.1036 C   0  0  0  0  0  0  0  0  0  0  0  0
    1.3137   -0.0419   -0.2435 C   0  0  0  0  0  0  0  0  0  0  0  0
    2.6191    0.1029   -0.3310 O   0  0  0  0  0  0  0  0  0  0  0  0
    3.4942   -1.0399   -0.4729 C   0  0  0  0  0  0  0  0  0  0  0  0
    0.6354   -1.2931   -0.2790 C   0  0  0  0  0  0  0  0  0  0  0  0
   -0.7358   -1.3505   -0.1790 C   0  0  0  0  0  0  0  0  0  0  0  0
   -2.2058    3.1337    0.2438 H   0  0  0  0  0  0  0  0  0  0  0  0
    1.1182    2.1179   -0.0793 H   0  0  0  0  0  0  0  0  0  0  0  0
    4.4978   -0.6219   -0.5139 H   0  0  0  0  0  0  0  0  0  0  0  0
    3.2734   -1.5742   -1.4010 H   0  0  0  0  0  0  0  0  0  0  0  0
    3.3984   -1.7009    0.3928 H   0  0  0  0  0  0  0  0  0  0  0  0
    1.1937   -2.2144   -0.3854 H   0  0  0  0  0  0  0  0  0  0  0  0
   -1.2613   -2.3005   -0.2052 H   0  0  0  0  0  0  0  0  0  0  0  0
  1  4  1  0  0  0  0
  1  2  1  0  0  0  0
  2  3  1  0  0  0  0
  5 12  1  0  0  0  0
  5  4  2  0  0  0  0
  6  5  1  0  0  0  0
  7  6  1  0  0  0  0
  8  7  1  0  0  0  0
  8 15  1  0  0  0  0
  9  6  2  0  0  0  0
  9 10  1  0  0  0  0
 10  1  2  0  0  0  0
 13  8  1  0  0  0  0
 14  8  1  0  0  0  0
 16  9  1  0  0  0  0
 17 10  1  0  0  0  0
M  RAD  4   2   2   3   3   4   2  11   2
M  END
