Coordinates from ORCA-job 4-MeOPhN2+_B3LYPG-6-31G_dp-d09-49-n800
 OpenBabel11261919463D

 17 16  0  0  0  0  0  0  0  0999 V2000
   -1.4242   -0.2086   -0.0470 C   0  0  0  0  0  0  0  0  0  0  0  0
   -2.7777   -0.2458    0.0542 N   0  0  0  0  0  0  0  0  0  0  0  0
   -3.8943   -0.2749    0.1379 N   0  0  0  0  0  0  0  0  0  0  0  0
   -0.7421    1.0147   -0.0138 C   0  0  0  0  0  0  0  0  0  0  0  0
    0.5996    1.1152   -0.1086 C   0  0  0  0  0  0  0  0  0  0  0  0
    1.3498   -0.0996   -0.2495 C   0  0  0  0  0  0  0  0  0  0  0  0
    2.6545    0.0532   -0.3363 O   0  0  0  0  0  0  0  0  0  0  0  0
    3.5367   -1.0840   -0.4796 C   0  0  0  0  0  0  0  0  0  0  0  0
    0.6790   -1.3556   -0.2866 C   0  0  0  0  0  0  0  0  0  0  0  0
   -0.6909   -1.4218   -0.1874 C   0  0  0  0  0  0  0  0  0  0  0  0
   -2.8239    4.1402    0.3569 H   0  0  0  0  0  0  0  0  0  0  0  0
    1.1442    2.0559   -0.0843 H   0  0  0  0  0  0  0  0  0  0  0  0
    4.5378   -0.6601   -0.5197 H   0  0  0  0  0  0  0  0  0  0  0  0
    3.3194   -1.6185   -1.4083 H   0  0  0  0  0  0  0  0  0  0  0  0
    3.4446   -1.7468    0.3851 H   0  0  0  0  0  0  0  0  0  0  0  0
    1.2441   -2.2728   -0.3936 H   0  0  0  0  0  0  0  0  0  0  0  0
   -1.2116   -2.3752   -0.2147 H   0  0  0  0  0  0  0  0  0  0  0  0
  1  4  1  0  0  0  0
  1  2  1  0  0  0  0
  2  3  1  0  0  0  0
  5 12  1  0  0  0  0
  5  4  2  0  0  0  0
  6  5  1  0  0  0  0
  7  6  1  0  0  0  0
  8  7  1  0  0  0  0
  8 15  1  0  0  0  0
  9  6  2  0  0  0  0
  9 10  1  0  0  0  0
 10  1  2  0  0  0  0
 13  8  1  0  0  0  0
 14  8  1  0  0  0  0
 16  9  1  0  0  0  0
 17 10  1  0  0  0  0
M  RAD  4   2   2   3   3   4   2  11   2
M  END
