Coordinates from ORCA-job 4-MeOPhN2+_B3LYPG-6-31G_dp-d09-49-n800
 OpenBabel11261919463D

 17 16  0  0  0  0  0  0  0  0999 V2000
   -1.4660   -0.1303   -0.0389 C   0  0  0  0  0  0  0  0  0  0  0  0
   -2.8165   -0.1519    0.0631 N   0  0  0  0  0  0  0  0  0  0  0  0
   -3.9330   -0.1671    0.1475 N   0  0  0  0  0  0  0  0  0  0  0  0
   -0.7729    1.0905   -0.0072 C   0  0  0  0  0  0  0  0  0  0  0  0
    0.5718    1.1832   -0.1029 C   0  0  0  0  0  0  0  0  0  0  0  0
    1.3089   -0.0365   -0.2428 C   0  0  0  0  0  0  0  0  0  0  0  0
    2.6145    0.1084   -0.3303 O   0  0  0  0  0  0  0  0  0  0  0  0
    3.4895   -1.0343   -0.4722 C   0  0  0  0  0  0  0  0  0  0  0  0
    0.6312   -1.2879   -0.2784 C   0  0  0  0  0  0  0  0  0  0  0  0
   -0.7401   -1.3451   -0.1783 C   0  0  0  0  0  0  0  0  0  0  0  0
   -2.1352    3.0480    0.2324 H   0  0  0  0  0  0  0  0  0  0  0  0
    1.1133    2.1227   -0.0785 H   0  0  0  0  0  0  0  0  0  0  0  0
    4.4931   -0.6164   -0.5131 H   0  0  0  0  0  0  0  0  0  0  0  0
    3.2688   -1.5687   -1.4002 H   0  0  0  0  0  0  0  0  0  0  0  0
    3.3938   -1.6953    0.3935 H   0  0  0  0  0  0  0  0  0  0  0  0
    1.1894   -2.2092   -0.3847 H   0  0  0  0  0  0  0  0  0  0  0  0
   -1.2656   -2.2949   -0.2045 H   0  0  0  0  0  0  0  0  0  0  0  0
  1  4  1  0  0  0  0
  1  2  1  0  0  0  0
  2  3  1  0  0  0  0
  5 12  1  0  0  0  0
  5  4  2  0  0  0  0
  6  5  1  0  0  0  0
  7  6  1  0  0  0  0
  8  7  1  0  0  0  0
  8 15  1  0  0  0  0
  9  6  2  0  0  0  0
  9 10  1  0  0  0  0
 10  1  2  0  0  0  0
 13  8  1  0  0  0  0
 14  8  1  0  0  0  0
 16  9  1  0  0  0  0
 17 10  1  0  0  0  0
M  RAD  4   2   2   3   3   4   2  11   2
M  END
