Coordinates from ORCA-job 4-MeOPhN2+_B3LYPG-6-31G_dp-d09-49-n800
 OpenBabel11261919463D

 17 16  0  0  0  0  0  0  0  0999 V2000
   -1.4212   -0.2730   -0.0514 C   0  0  0  0  0  0  0  0  0  0  0  0
   -2.7751   -0.3312    0.0484 N   0  0  0  0  0  0  0  0  0  0  0  0
   -3.8913   -0.3763    0.1308 N   0  0  0  0  0  0  0  0  0  0  0  0
   -0.7613    0.9622   -0.0153 C   0  0  0  0  0  0  0  0  0  0  0  0
    0.5803    1.0774   -0.1091 C   0  0  0  0  0  0  0  0  0  0  0  0
    1.3485   -0.1255   -0.2509 C   0  0  0  0  0  0  0  0  0  0  0  0
    2.6517    0.0455   -0.3363 O   0  0  0  0  0  0  0  0  0  0  0  0
    3.5488   -1.0791   -0.4804 C   0  0  0  0  0  0  0  0  0  0  0  0
    0.6963   -1.3913   -0.2904 C   0  0  0  0  0  0  0  0  0  0  0  0
   -0.6725   -1.4768   -0.1926 C   0  0  0  0  0  0  0  0  0  0  0  0
   -2.9178    4.6989    0.4008 H   0  0  0  0  0  0  0  0  0  0  0  0
    1.1143    2.0246   -0.0834 H   0  0  0  0  0  0  0  0  0  0  0  0
    4.5445   -0.6421   -0.5191 H   0  0  0  0  0  0  0  0  0  0  0  0
    3.3398   -1.6155   -1.4100 H   0  0  0  0  0  0  0  0  0  0  0  0
    3.4653   -1.7448    0.3830 H   0  0  0  0  0  0  0  0  0  0  0  0
    1.2747   -2.3001   -0.3978 H   0  0  0  0  0  0  0  0  0  0  0  0
   -1.1800   -2.4374   -0.2216 H   0  0  0  0  0  0  0  0  0  0  0  0
  1  4  1  0  0  0  0
  1  2  1  0  0  0  0
  2  3  1  0  0  0  0
  5 12  1  0  0  0  0
  5  4  2  0  0  0  0
  6  5  1  0  0  0  0
  7  6  1  0  0  0  0
  8  7  1  0  0  0  0
  8 15  1  0  0  0  0
  9  6  2  0  0  0  0
  9 10  1  0  0  0  0
 10  1  2  0  0  0  0
 13  8  1  0  0  0  0
 14  8  1  0  0  0  0
 16  9  1  0  0  0  0
 17 10  1  0  0  0  0
M  RAD  4   2   2   3   3   4   2  11   2
M  END
