Coordinates from ORCA-job 4-MeOPhN2+_B3LYPG-6-31G_dp-d09-49-n800
 OpenBabel11261919463D

 17 16  0  0  0  0  0  0  0  0999 V2000
   -1.4222   -0.2901   -0.0524 C   0  0  0  0  0  0  0  0  0  0  0  0
   -2.7760   -0.3543    0.0468 N   0  0  0  0  0  0  0  0  0  0  0  0
   -3.8921   -0.4039    0.1288 N   0  0  0  0  0  0  0  0  0  0  0  0
   -0.7685    0.9486   -0.0156 C   0  0  0  0  0  0  0  0  0  0  0  0
    0.5729    1.0685   -0.1090 C   0  0  0  0  0  0  0  0  0  0  0  0
    1.3463   -0.1309   -0.2511 C   0  0  0  0  0  0  0  0  0  0  0  0
    2.6490    0.0457   -0.3361 O   0  0  0  0  0  0  0  0  0  0  0  0
    3.5507   -1.0752   -0.4804 C   0  0  0  0  0  0  0  0  0  0  0  0
    0.6997   -1.3995   -0.2912 C   0  0  0  0  0  0  0  0  0  0  0  0
   -0.6687   -1.4908   -0.1938 C   0  0  0  0  0  0  0  0  0  0  0  0
   -2.9180    4.8270    0.4094 H   0  0  0  0  0  0  0  0  0  0  0  0
    1.1034    2.0177   -0.0828 H   0  0  0  0  0  0  0  0  0  0  0  0
    4.5446   -0.6342   -0.5187 H   0  0  0  0  0  0  0  0  0  0  0  0
    3.3441   -1.6122   -1.4102 H   0  0  0  0  0  0  0  0  0  0  0  0
    3.4698   -1.7416    0.3827 H   0  0  0  0  0  0  0  0  0  0  0  0
    1.2821   -2.3057   -0.3987 H   0  0  0  0  0  0  0  0  0  0  0  0
   -1.1722   -2.4535   -0.2232 H   0  0  0  0  0  0  0  0  0  0  0  0
  1  4  1  0  0  0  0
  1  2  1  0  0  0  0
  2  3  1  0  0  0  0
  5 12  1  0  0  0  0
  5  4  2  0  0  0  0
  6  5  1  0  0  0  0
  7  6  1  0  0  0  0
  8  7  1  0  0  0  0
  8 15  1  0  0  0  0
  9  6  2  0  0  0  0
  9 10  1  0  0  0  0
 10  1  2  0  0  0  0
 13  8  1  0  0  0  0
 14  8  1  0  0  0  0
 16  9  1  0  0  0  0
 17 10  1  0  0  0  0
M  RAD  4   2   2   3   3   4   2  11   2
M  END
