Coordinates from ORCA-job 4-MeOPhN2+_B3LYPG-6-31G_dp-d09-49-n800
 OpenBabel11261919463D

 17 16  0  0  0  0  0  0  0  0999 V2000
   -1.4599   -0.1385   -0.0400 C   0  0  0  0  0  0  0  0  0  0  0  0
   -2.8107   -0.1596    0.0621 N   0  0  0  0  0  0  0  0  0  0  0  0
   -3.9272   -0.1743    0.1465 N   0  0  0  0  0  0  0  0  0  0  0  0
   -0.7645    1.0796   -0.0087 C   0  0  0  0  0  0  0  0  0  0  0  0
    0.5787    1.1755   -0.1041 C   0  0  0  0  0  0  0  0  0  0  0  0
    1.3164   -0.0450   -0.2440 C   0  0  0  0  0  0  0  0  0  0  0  0
    2.6217    0.0997   -0.3314 O   0  0  0  0  0  0  0  0  0  0  0  0
    3.4969   -1.0432   -0.4734 C   0  0  0  0  0  0  0  0  0  0  0  0
    0.6379   -1.2962   -0.2794 C   0  0  0  0  0  0  0  0  0  0  0  0
   -0.7333   -1.3537   -0.1794 C   0  0  0  0  0  0  0  0  0  0  0  0
   -2.2470    3.1840    0.2506 H   0  0  0  0  0  0  0  0  0  0  0  0
    1.1210    2.1150   -0.0798 H   0  0  0  0  0  0  0  0  0  0  0  0
    4.5005   -0.6252   -0.5143 H   0  0  0  0  0  0  0  0  0  0  0  0
    3.2761   -1.5775   -1.4014 H   0  0  0  0  0  0  0  0  0  0  0  0
    3.4010   -1.7041    0.3924 H   0  0  0  0  0  0  0  0  0  0  0  0
    1.1962   -2.2175   -0.3857 H   0  0  0  0  0  0  0  0  0  0  0  0
   -1.2589   -2.3037   -0.2055 H   0  0  0  0  0  0  0  0  0  0  0  0
  1  4  1  0  0  0  0
  1  2  1  0  0  0  0
  2  3  1  0  0  0  0
  5 12  1  0  0  0  0
  5  4  2  0  0  0  0
  6  5  1  0  0  0  0
  7  6  1  0  0  0  0
  8  7  1  0  0  0  0
  8 15  1  0  0  0  0
  9  6  2  0  0  0  0
  9 10  1  0  0  0  0
 10  1  2  0  0  0  0
 13  8  1  0  0  0  0
 14  8  1  0  0  0  0
 16  9  1  0  0  0  0
 17 10  1  0  0  0  0
M  RAD  4   2   2   3   3   4   2  11   2
M  END
