Coordinates from ORCA-job 4-MeOPhN2+_B3LYPG-6-31G_dp-d09-49-n800
 OpenBabel11261919463D

 17 17  0  0  0  0  0  0  0  0999 V2000
   -1.4943   -0.0574   -0.0316 C   0  0  0  0  0  0  0  0  0  0  0  0
   -2.8474   -0.1005    0.0686 N   0  0  0  0  0  0  0  0  0  0  0  0
   -3.9648   -0.1314    0.1515 N   0  0  0  0  0  0  0  0  0  0  0  0
   -0.8441    1.2062    0.0064 C   0  0  0  0  0  0  0  0  0  0  0  0
    0.5227    1.2279   -0.0956 C   0  0  0  0  0  0  0  0  0  0  0  0
    1.2600    0.0189   -0.2347 C   0  0  0  0  0  0  0  0  0  0  0  0
    2.5679    0.1661   -0.3223 O   0  0  0  0  0  0  0  0  0  0  0  0
    3.4401   -0.9762   -0.4648 C   0  0  0  0  0  0  0  0  0  0  0  0
    0.5873   -1.2310   -0.2706 C   0  0  0  0  0  0  0  0  0  0  0  0
   -0.7851   -1.2750   -0.1697 C   0  0  0  0  0  0  0  0  0  0  0  0
   -1.4002    2.0910    0.1102 H   0  0  0  0  0  0  0  0  0  0  0  0
    1.0710    2.1629   -0.0722 H   0  0  0  0  0  0  0  0  0  0  0  0
    4.4449   -0.5611   -0.5064 H   0  0  0  0  0  0  0  0  0  0  0  0
    3.2192   -1.5114   -1.3926 H   0  0  0  0  0  0  0  0  0  0  0  0
    3.3449   -1.6386    0.4001 H   0  0  0  0  0  0  0  0  0  0  0  0
    1.1402   -2.1556   -0.3767 H   0  0  0  0  0  0  0  0  0  0  0  0
   -1.3174   -2.2197   -0.1951 H   0  0  0  0  0  0  0  0  0  0  0  0
  1  4  1  0  0  0  0
  1  2  1  0  0  0  0
  2  3  1  0  0  0  0
  4 11  1  0  0  0  0
  5 12  1  0  0  0  0
  5  4  2  0  0  0  0
  6  5  1  0  0  0  0
  7  6  1  0  0  0  0
  8  7  1  0  0  0  0
  8 15  1  0  0  0  0
  9  6  2  0  0  0  0
  9 10  1  0  0  0  0
 10  1  2  0  0  0  0
 13  8  1  0  0  0  0
 14  8  1  0  0  0  0
 16  9  1  0  0  0  0
 17 10  1  0  0  0  0
M  RAD  2   2   2   3   3
M  END
