Coordinates from ORCA-job 4-MeOPhN2+_B3LYPG-6-31G_dp-d09-49-n800
 OpenBabel11261919463D

 17 16  0  0  0  0  0  0  0  0999 V2000
   -1.4212   -0.2373   -0.0493 C   0  0  0  0  0  0  0  0  0  0  0  0
   -2.7751   -0.2836    0.0515 N   0  0  0  0  0  0  0  0  0  0  0  0
   -3.8915   -0.3197    0.1346 N   0  0  0  0  0  0  0  0  0  0  0  0
   -0.7490    0.9914   -0.0149 C   0  0  0  0  0  0  0  0  0  0  0  0
    0.5929    1.0973   -0.1093 C   0  0  0  0  0  0  0  0  0  0  0  0
    1.3507   -0.1124   -0.2505 C   0  0  0  0  0  0  0  0  0  0  0  0
    2.6549    0.0479   -0.3367 O   0  0  0  0  0  0  0  0  0  0  0  0
    3.5433   -1.0841   -0.4801 C   0  0  0  0  0  0  0  0  0  0  0  0
    0.6878   -1.3726   -0.2885 C   0  0  0  0  0  0  0  0  0  0  0  0
   -0.6817   -1.4468   -0.1899 C   0  0  0  0  0  0  0  0  0  0  0  0
   -2.8876    4.4067    0.3799 H   0  0  0  0  0  0  0  0  0  0  0  0
    1.1336    2.0405   -0.0846 H   0  0  0  0  0  0  0  0  0  0  0  0
    4.5422   -0.6548   -0.5196 H   0  0  0  0  0  0  0  0  0  0  0  0
    3.3295   -1.6196   -1.4091 H   0  0  0  0  0  0  0  0  0  0  0  0
    3.4547   -1.7480    0.3841 H   0  0  0  0  0  0  0  0  0  0  0  0
    1.2584   -2.2863   -0.3956 H   0  0  0  0  0  0  0  0  0  0  0  0
   -1.1970   -2.4032   -0.2177 H   0  0  0  0  0  0  0  0  0  0  0  0
  1  4  1  0  0  0  0
  1  2  1  0  0  0  0
  2  3  1  0  0  0  0
  5 12  1  0  0  0  0
  5  4  2  0  0  0  0
  6  5  1  0  0  0  0
  7  6  1  0  0  0  0
  8  7  1  0  0  0  0
  8 15  1  0  0  0  0
  9  6  2  0  0  0  0
  9 10  1  0  0  0  0
 10  1  2  0  0  0  0
 13  8  1  0  0  0  0
 14  8  1  0  0  0  0
 16  9  1  0  0  0  0
 17 10  1  0  0  0  0
M  RAD  4   2   2   3   3   4   2  11   2
M  END
