Coordinates from ORCA-job 4-MeOPhN2+_B3LYPG-6-31G_dp-d09-49-n800
 OpenBabel11261919463D

 17 16  0  0  0  0  0  0  0  0999 V2000
   -1.4673   -0.1283   -0.0386 C   0  0  0  0  0  0  0  0  0  0  0  0
   -2.8178   -0.1501    0.0633 N   0  0  0  0  0  0  0  0  0  0  0  0
   -3.9344   -0.1655    0.1478 N   0  0  0  0  0  0  0  0  0  0  0  0
   -0.7750    1.0933   -0.0068 C   0  0  0  0  0  0  0  0  0  0  0  0
    0.5702    1.1850   -0.1027 C   0  0  0  0  0  0  0  0  0  0  0  0
    1.3071   -0.0346   -0.2425 C   0  0  0  0  0  0  0  0  0  0  0  0
    2.6127    0.1105   -0.3300 O   0  0  0  0  0  0  0  0  0  0  0  0
    3.4877   -1.0322   -0.4719 C   0  0  0  0  0  0  0  0  0  0  0  0
    0.6297   -1.2860   -0.2781 C   0  0  0  0  0  0  0  0  0  0  0  0
   -0.7417   -1.3430   -0.1780 C   0  0  0  0  0  0  0  0  0  0  0  0
   -2.1088    3.0160    0.2281 H   0  0  0  0  0  0  0  0  0  0  0  0
    1.1115    2.1245   -0.0783 H   0  0  0  0  0  0  0  0  0  0  0  0
    4.4914   -0.6143   -0.5129 H   0  0  0  0  0  0  0  0  0  0  0  0
    3.2671   -1.5666   -1.3999 H   0  0  0  0  0  0  0  0  0  0  0  0
    3.3920   -1.6932    0.3937 H   0  0  0  0  0  0  0  0  0  0  0  0
    1.1878   -2.2073   -0.3845 H   0  0  0  0  0  0  0  0  0  0  0  0
   -1.2672   -2.2928   -0.2042 H   0  0  0  0  0  0  0  0  0  0  0  0
  1  4  1  0  0  0  0
  1  2  1  0  0  0  0
  2  3  1  0  0  0  0
  5 12  1  0  0  0  0
  5  4  2  0  0  0  0
  6  5  1  0  0  0  0
  7  6  1  0  0  0  0
  8  7  1  0  0  0  0
  8 15  1  0  0  0  0
  9  6  2  0  0  0  0
  9 10  1  0  0  0  0
 10  1  2  0  0  0  0
 13  8  1  0  0  0  0
 14  8  1  0  0  0  0
 16  9  1  0  0  0  0
 17 10  1  0  0  0  0
M  RAD  4   2   2   3   3   4   2  11   2
M  END
