Coordinates from ORCA-job 4-MeOPhN2+_B3LYPG-6-31G_dp-d09-49-n800
 OpenBabel11261919463D

 17 16  0  0  0  0  0  0  0  0999 V2000
   -1.4317   -0.1822   -0.0449 C   0  0  0  0  0  0  0  0  0  0  0  0
   -2.7845   -0.2113    0.0567 N   0  0  0  0  0  0  0  0  0  0  0  0
   -3.9011   -0.2338    0.1407 N   0  0  0  0  0  0  0  0  0  0  0  0
   -0.7411    1.0364   -0.0130 C   0  0  0  0  0  0  0  0  0  0  0  0
    0.6003    1.1346   -0.1080 C   0  0  0  0  0  0  0  0  0  0  0  0
    1.3444   -0.0841   -0.2483 C   0  0  0  0  0  0  0  0  0  0  0  0
    2.6494    0.0632   -0.3355 O   0  0  0  0  0  0  0  0  0  0  0  0
    3.5272   -1.0777   -0.4783 C   0  0  0  0  0  0  0  0  0  0  0  0
    0.6679   -1.3370   -0.2844 C   0  0  0  0  0  0  0  0  0  0  0  0
   -0.7024   -1.3977   -0.1847 C   0  0  0  0  0  0  0  0  0  0  0  0
   -2.7024    3.8456    0.3292 H   0  0  0  0  0  0  0  0  0  0  0  0
    1.1465    2.0739   -0.0841 H   0  0  0  0  0  0  0  0  0  0  0  0
    4.5299   -0.6575   -0.5189 H   0  0  0  0  0  0  0  0  0  0  0  0
    3.3075   -1.6118   -1.4066 H   0  0  0  0  0  0  0  0  0  0  0  0
    3.4327   -1.7394    0.3870 H   0  0  0  0  0  0  0  0  0  0  0  0
    1.2289   -2.2568   -0.3910 H   0  0  0  0  0  0  0  0  0  0  0  0
   -1.2266   -2.3491   -0.2113 H   0  0  0  0  0  0  0  0  0  0  0  0
  1  4  1  0  0  0  0
  1  2  1  0  0  0  0
  2  3  1  0  0  0  0
  5 12  1  0  0  0  0
  5  4  2  0  0  0  0
  6  5  1  0  0  0  0
  7  6  1  0  0  0  0
  8  7  1  0  0  0  0
  8 15  1  0  0  0  0
  9  6  2  0  0  0  0
  9 10  1  0  0  0  0
 10  1  2  0  0  0  0
 13  8  1  0  0  0  0
 14  8  1  0  0  0  0
 16  9  1  0  0  0  0
 17 10  1  0  0  0  0
M  RAD  4   2   2   3   3   4   2  11   2
M  END
