Coordinates from ORCA-job 4-MeOPhN2+_B3LYPG-6-31G_dp-d09-49-n800
 OpenBabel11261919463D

 17 17  0  0  0  0  0  0  0  0999 V2000
   -1.4922   -0.0643   -0.0322 C   0  0  0  0  0  0  0  0  0  0  0  0
   -2.8449   -0.1063    0.0678 N   0  0  0  0  0  0  0  0  0  0  0  0
   -3.9623   -0.1365    0.1507 N   0  0  0  0  0  0  0  0  0  0  0  0
   -0.8387    1.1962    0.0053 C   0  0  0  0  0  0  0  0  0  0  0  0
    0.5267    1.2241   -0.0959 C   0  0  0  0  0  0  0  0  0  0  0  0
    1.2635    0.0144   -0.2350 C   0  0  0  0  0  0  0  0  0  0  0  0
    2.5714    0.1614   -0.3225 O   0  0  0  0  0  0  0  0  0  0  0  0
    3.4437   -0.9808   -0.4656 C   0  0  0  0  0  0  0  0  0  0  0  0
    0.5910   -1.2360   -0.2709 C   0  0  0  0  0  0  0  0  0  0  0  0
   -0.7813   -1.2814   -0.1703 C   0  0  0  0  0  0  0  0  0  0  0  0
   -1.4579    2.1768    0.1200 H   0  0  0  0  0  0  0  0  0  0  0  0
    1.0744    2.1593   -0.0725 H   0  0  0  0  0  0  0  0  0  0  0  0
    4.4485   -0.5656   -0.5072 H   0  0  0  0  0  0  0  0  0  0  0  0
    3.2227   -1.5157   -1.3935 H   0  0  0  0  0  0  0  0  0  0  0  0
    3.3488   -1.6435    0.3991 H   0  0  0  0  0  0  0  0  0  0  0  0
    1.1446   -2.1601   -0.3770 H   0  0  0  0  0  0  0  0  0  0  0  0
   -1.3128   -2.2267   -0.1957 H   0  0  0  0  0  0  0  0  0  0  0  0
  1  4  1  0  0  0  0
  1  2  1  0  0  0  0
  2  3  1  0  0  0  0
  4 11  1  0  0  0  0
  5 12  1  0  0  0  0
  5  4  2  0  0  0  0
  6  5  1  0  0  0  0
  7  6  1  0  0  0  0
  8  7  1  0  0  0  0
  8 15  1  0  0  0  0
  9  6  2  0  0  0  0
  9 10  1  0  0  0  0
 10  1  2  0  0  0  0
 13  8  1  0  0  0  0
 14  8  1  0  0  0  0
 16  9  1  0  0  0  0
 17 10  1  0  0  0  0
M  RAD  2   2   2   3   3
M  END
