Coordinates from ORCA-job 4-MeOPhN2+_B3LYPG-6-31G_dp-d09-49-n800
 OpenBabel11261919463D

 17 16  0  0  0  0  0  0  0  0999 V2000
   -1.4260   -0.2000   -0.0464 C   0  0  0  0  0  0  0  0  0  0  0  0
   -2.7793   -0.2345    0.0550 N   0  0  0  0  0  0  0  0  0  0  0  0
   -3.8959   -0.2615    0.1386 N   0  0  0  0  0  0  0  0  0  0  0  0
   -0.7409    1.0216   -0.0135 C   0  0  0  0  0  0  0  0  0  0  0  0
    0.6007    1.1211   -0.1084 C   0  0  0  0  0  0  0  0  0  0  0  0
    1.3488   -0.0951   -0.2492 C   0  0  0  0  0  0  0  0  0  0  0  0
    2.6536    0.0556   -0.3361 O   0  0  0  0  0  0  0  0  0  0  0  0
    3.5341   -1.0829   -0.4793 C   0  0  0  0  0  0  0  0  0  0  0  0
    0.6759   -1.3500   -0.2859 C   0  0  0  0  0  0  0  0  0  0  0  0
   -0.6942   -1.4142   -0.1866 C   0  0  0  0  0  0  0  0  0  0  0  0
   -2.7942    4.0521    0.3489 H   0  0  0  0  0  0  0  0  0  0  0  0
    1.1461    2.0612   -0.0842 H   0  0  0  0  0  0  0  0  0  0  0  0
    4.5359   -0.6604   -0.5196 H   0  0  0  0  0  0  0  0  0  0  0  0
    3.3159   -1.6172   -1.4079 H   0  0  0  0  0  0  0  0  0  0  0  0
    3.4412   -1.7454    0.3855 H   0  0  0  0  0  0  0  0  0  0  0  0
    1.2395   -2.2681   -0.3928 H   0  0  0  0  0  0  0  0  0  0  0  0
   -1.2161   -2.3669   -0.2136 H   0  0  0  0  0  0  0  0  0  0  0  0
  1  4  1  0  0  0  0
  1  2  1  0  0  0  0
  2  3  1  0  0  0  0
  5 12  1  0  0  0  0
  5  4  2  0  0  0  0
  6  5  1  0  0  0  0
  7  6  1  0  0  0  0
  8  7  1  0  0  0  0
  8 15  1  0  0  0  0
  9  6  2  0  0  0  0
  9 10  1  0  0  0  0
 10  1  2  0  0  0  0
 13  8  1  0  0  0  0
 14  8  1  0  0  0  0
 16  9  1  0  0  0  0
 17 10  1  0  0  0  0
M  RAD  4   2   2   3   3   4   2  11   2
M  END
