Coordinates from ORCA-job 4-MeOPhN2+_B3LYPG-6-31G_dp-d09-49-n800
 OpenBabel11261919463D

 17 16  0  0  0  0  0  0  0  0999 V2000
   -1.4809   -0.1018   -0.0358 C   0  0  0  0  0  0  0  0  0  0  0  0
   -2.8314   -0.1310    0.0657 N   0  0  0  0  0  0  0  0  0  0  0  0
   -3.9483   -0.1519    0.1498 N   0  0  0  0  0  0  0  0  0  0  0  0
   -0.8031    1.1344   -0.0017 C   0  0  0  0  0  0  0  0  0  0  0  0
    0.5502    1.2045   -0.0995 C   0  0  0  0  0  0  0  0  0  0  0  0
    1.2859   -0.0112   -0.2390 C   0  0  0  0  0  0  0  0  0  0  0  0
    2.5927    0.1346   -0.3265 O   0  0  0  0  0  0  0  0  0  0  0  0
    3.4664   -1.0078   -0.4688 C   0  0  0  0  0  0  0  0  0  0  0  0
    0.6115   -1.2629   -0.2750 C   0  0  0  0  0  0  0  0  0  0  0  0
   -0.7602   -1.3168   -0.1748 C   0  0  0  0  0  0  0  0  0  0  0  0
   -1.7995    2.6362    0.1778 H   0  0  0  0  0  0  0  0  0  0  0  0
    1.0923    2.1424   -0.0753 H   0  0  0  0  0  0  0  0  0  0  0  0
    4.4706   -0.5911   -0.5098 H   0  0  0  0  0  0  0  0  0  0  0  0
    3.2460   -1.5425   -1.3968 H   0  0  0  0  0  0  0  0  0  0  0  0
    3.3711   -1.6696    0.3964 H   0  0  0  0  0  0  0  0  0  0  0  0
    1.1686   -2.1849   -0.3814 H   0  0  0  0  0  0  0  0  0  0  0  0
   -1.2869   -2.2653   -0.2008 H   0  0  0  0  0  0  0  0  0  0  0  0
  1  4  1  0  0  0  0
  1  2  1  0  0  0  0
  2  3  1  0  0  0  0
  5 12  1  0  0  0  0
  5  4  2  0  0  0  0
  6  5  1  0  0  0  0
  7  6  1  0  0  0  0
  8  7  1  0  0  0  0
  8 15  1  0  0  0  0
  9  6  2  0  0  0  0
  9 10  1  0  0  0  0
 10  1  2  0  0  0  0
 13  8  1  0  0  0  0
 14  8  1  0  0  0  0
 16  9  1  0  0  0  0
 17 10  1  0  0  0  0
M  RAD  4   2   2   3   3   4   2  11   2
M  END
