Coordinates from ORCA-job 4-MeOPhN2+_B3LYPG-6-31G_dp-d09-49-n800
 OpenBabel11261919463D

 17 16  0  0  0  0  0  0  0  0999 V2000
   -1.4274   -0.3496   -0.0564 C   0  0  0  0  0  0  0  0  0  0  0  0
   -2.7806   -0.4346    0.0411 N   0  0  0  0  0  0  0  0  0  0  0  0
   -3.8959   -0.5004    0.1216 N   0  0  0  0  0  0  0  0  0  0  0  0
   -0.7949    0.9000   -0.0176 C   0  0  0  0  0  0  0  0  0  0  0  0
    0.5454    1.0387   -0.1096 C   0  0  0  0  0  0  0  0  0  0  0  0
    1.3373   -0.1481   -0.2517 C   0  0  0  0  0  0  0  0  0  0  0  0
    2.6376    0.0482   -0.3353 O   0  0  0  0  0  0  0  0  0  0  0  0
    3.5557   -1.0589   -0.4797 C   0  0  0  0  0  0  0  0  0  0  0  0
    0.7106   -1.4266   -0.2934 C   0  0  0  0  0  0  0  0  0  0  0  0
   -0.6563   -1.5391   -0.1977 C   0  0  0  0  0  0  0  0  0  0  0  0
   -2.8960    5.2529    0.4386 H   0  0  0  0  0  0  0  0  0  0  0  0
    1.0622    1.9955   -0.0821 H   0  0  0  0  0  0  0  0  0  0  0  0
    4.5431   -0.6036   -0.5168 H   0  0  0  0  0  0  0  0  0  0  0  0
    3.3581   -1.5985   -1.4100 H   0  0  0  0  0  0  0  0  0  0  0  0
    3.4841   -1.7273    0.3828 H   0  0  0  0  0  0  0  0  0  0  0  0
    1.3071   -2.3236   -0.4007 H   0  0  0  0  0  0  0  0  0  0  0  0
   -1.1449   -2.5095   -0.2284 H   0  0  0  0  0  0  0  0  0  0  0  0
  1  4  1  0  0  0  0
  1  2  1  0  0  0  0
  2  3  1  0  0  0  0
  5 12  1  0  0  0  0
  5  4  2  0  0  0  0
  6  5  1  0  0  0  0
  7  6  1  0  0  0  0
  8  7  1  0  0  0  0
  8 15  1  0  0  0  0
  9  6  2  0  0  0  0
  9 10  1  0  0  0  0
 10  1  2  0  0  0  0
 13  8  1  0  0  0  0
 14  8  1  0  0  0  0
 16  9  1  0  0  0  0
 17 10  1  0  0  0  0
M  RAD  4   2   2   3   3   4   2  11   2
M  END
