Coordinates from ORCA-job 4-MeOPhN2+_B3LYPG-6-31G_dp-d09-49-n800
 OpenBabel11261919463D

 17 16  0  0  0  0  0  0  0  0999 V2000
   -1.4448   -0.1584   -0.0426 C   0  0  0  0  0  0  0  0  0  0  0  0
   -2.7966   -0.1815    0.0593 N   0  0  0  0  0  0  0  0  0  0  0  0
   -3.9132   -0.1986    0.1436 N   0  0  0  0  0  0  0  0  0  0  0  0
   -0.7490    1.0578   -0.0116 C   0  0  0  0  0  0  0  0  0  0  0  0
    0.5925    1.1558   -0.1065 C   0  0  0  0  0  0  0  0  0  0  0  0
    1.3326   -0.0649   -0.2465 C   0  0  0  0  0  0  0  0  0  0  0  0
    2.6376    0.0798   -0.3339 O   0  0  0  0  0  0  0  0  0  0  0  0
    3.5134   -1.0628   -0.4760 C   0  0  0  0  0  0  0  0  0  0  0  0
    0.6534   -1.3163   -0.2818 C   0  0  0  0  0  0  0  0  0  0  0  0
   -0.7173   -1.3743   -0.1819 C   0  0  0  0  0  0  0  0  0  0  0  0
   -2.4974    3.5109    0.2925 H   0  0  0  0  0  0  0  0  0  0  0  0
    1.1376    2.0949   -0.0828 H   0  0  0  0  0  0  0  0  0  0  0  0
    4.5168   -0.6444   -0.5169 H   0  0  0  0  0  0  0  0  0  0  0  0
    3.2926   -1.5970   -1.4041 H   0  0  0  0  0  0  0  0  0  0  0  0
    3.4176   -1.7237    0.3897 H   0  0  0  0  0  0  0  0  0  0  0  0
    1.2122   -2.2373   -0.3881 H   0  0  0  0  0  0  0  0  0  0  0  0
   -1.2430   -2.3246   -0.2081 H   0  0  0  0  0  0  0  0  0  0  0  0
  1  4  1  0  0  0  0
  1  2  1  0  0  0  0
  2  3  1  0  0  0  0
  5 12  1  0  0  0  0
  5  4  2  0  0  0  0
  6  5  1  0  0  0  0
  7  6  1  0  0  0  0
  8  7  1  0  0  0  0
  8 15  1  0  0  0  0
  9  6  2  0  0  0  0
  9 10  1  0  0  0  0
 10  1  2  0  0  0  0
 13  8  1  0  0  0  0
 14  8  1  0  0  0  0
 16  9  1  0  0  0  0
 17 10  1  0  0  0  0
M  RAD  4   2   2   3   3   4   2  11   2
M  END
