Coordinates from ORCA-job 4-MeOPhN2+_B3LYPG-6-31G_dp-d09-49-n800
 OpenBabel11261919463D

 17 16  0  0  0  0  0  0  0  0999 V2000
   -1.4806   -0.1026   -0.0359 C   0  0  0  0  0  0  0  0  0  0  0  0
   -2.8311   -0.1315    0.0656 N   0  0  0  0  0  0  0  0  0  0  0  0
   -3.9480   -0.1522    0.1497 N   0  0  0  0  0  0  0  0  0  0  0  0
   -0.8023    1.1331   -0.0019 C   0  0  0  0  0  0  0  0  0  0  0  0
    0.5508    1.2040   -0.0996 C   0  0  0  0  0  0  0  0  0  0  0  0
    1.2865   -0.0118   -0.2391 C   0  0  0  0  0  0  0  0  0  0  0  0
    2.5932    0.1340   -0.3266 O   0  0  0  0  0  0  0  0  0  0  0  0
    3.4670   -1.0085   -0.4689 C   0  0  0  0  0  0  0  0  0  0  0  0
    0.6120   -1.2636   -0.2751 C   0  0  0  0  0  0  0  0  0  0  0  0
   -0.7597   -1.3176   -0.1748 C   0  0  0  0  0  0  0  0  0  0  0  0
   -1.8079    2.6467    0.1791 H   0  0  0  0  0  0  0  0  0  0  0  0
    1.0927    2.1420   -0.0753 H   0  0  0  0  0  0  0  0  0  0  0  0
    4.4712   -0.5917   -0.5099 H   0  0  0  0  0  0  0  0  0  0  0  0
    3.2466   -1.5432   -1.3969 H   0  0  0  0  0  0  0  0  0  0  0  0
    3.3717   -1.6703    0.3964 H   0  0  0  0  0  0  0  0  0  0  0  0
    1.1691   -2.1855   -0.3815 H   0  0  0  0  0  0  0  0  0  0  0  0
   -1.2863   -2.2661   -0.2009 H   0  0  0  0  0  0  0  0  0  0  0  0
  1  4  1  0  0  0  0
  1  2  1  0  0  0  0
  2  3  1  0  0  0  0
  5 12  1  0  0  0  0
  5  4  2  0  0  0  0
  6  5  1  0  0  0  0
  7  6  1  0  0  0  0
  8  7  1  0  0  0  0
  8 15  1  0  0  0  0
  9  6  2  0  0  0  0
  9 10  1  0  0  0  0
 10  1  2  0  0  0  0
 13  8  1  0  0  0  0
 14  8  1  0  0  0  0
 16  9  1  0  0  0  0
 17 10  1  0  0  0  0
M  RAD  4   2   2   3   3   4   2  11   2
M  END
