Coordinates from ORCA-job 4-MeOPhN2+_B3LYPG-6-31G_dp-d09-49-n800
 OpenBabel11261919463D

 17 16  0  0  0  0  0  0  0  0999 V2000
   -1.4782   -0.1083   -0.0364 C   0  0  0  0  0  0  0  0  0  0  0  0
   -2.8286   -0.1352    0.0652 N   0  0  0  0  0  0  0  0  0  0  0  0
   -3.9454   -0.1544    0.1494 N   0  0  0  0  0  0  0  0  0  0  0  0
   -0.7962    1.1237   -0.0030 C   0  0  0  0  0  0  0  0  0  0  0  0
    0.5549    1.2003   -0.1002 C   0  0  0  0  0  0  0  0  0  0  0  0
    1.2907   -0.0165   -0.2398 C   0  0  0  0  0  0  0  0  0  0  0  0
    2.5972    0.1291   -0.3273 O   0  0  0  0  0  0  0  0  0  0  0  0
    3.4713   -1.0133   -0.4695 C   0  0  0  0  0  0  0  0  0  0  0  0
    0.6156   -1.2682   -0.2757 C   0  0  0  0  0  0  0  0  0  0  0  0
   -0.7560   -1.3232   -0.1755 C   0  0  0  0  0  0  0  0  0  0  0  0
   -1.8696    2.7237    0.1891 H   0  0  0  0  0  0  0  0  0  0  0  0
    1.0963    2.1388   -0.0758 H   0  0  0  0  0  0  0  0  0  0  0  0
    4.4753   -0.5962   -0.5105 H   0  0  0  0  0  0  0  0  0  0  0  0
    3.2508   -1.5479   -1.3975 H   0  0  0  0  0  0  0  0  0  0  0  0
    3.3759   -1.6750    0.3958 H   0  0  0  0  0  0  0  0  0  0  0  0
    1.1731   -2.1899   -0.3821 H   0  0  0  0  0  0  0  0  0  0  0  0
   -1.2822   -2.2721   -0.2016 H   0  0  0  0  0  0  0  0  0  0  0  0
  1  4  1  0  0  0  0
  1  2  1  0  0  0  0
  2  3  1  0  0  0  0
  5 12  1  0  0  0  0
  5  4  2  0  0  0  0
  6  5  1  0  0  0  0
  7  6  1  0  0  0  0
  8  7  1  0  0  0  0
  8 15  1  0  0  0  0
  9  6  2  0  0  0  0
  9 10  1  0  0  0  0
 10  1  2  0  0  0  0
 13  8  1  0  0  0  0
 14  8  1  0  0  0  0
 16  9  1  0  0  0  0
 17 10  1  0  0  0  0
M  RAD  4   2   2   3   3   4   2  11   2
M  END
