Coordinates from ORCA-job 4-MeOPhN2+_B3LYPG-6-31G_dp-d09-49-n800
 OpenBabel11261919463D

 17 16  0  0  0  0  0  0  0  0999 V2000
   -1.4210   -0.2430   -0.0496 C   0  0  0  0  0  0  0  0  0  0  0  0
   -2.7749   -0.2910    0.0510 N   0  0  0  0  0  0  0  0  0  0  0  0
   -3.8913   -0.3283    0.1337 N   0  0  0  0  0  0  0  0  0  0  0  0
   -0.7504    0.9864   -0.0150 C   0  0  0  0  0  0  0  0  0  0  0  0
    0.5913    1.0942   -0.1094 C   0  0  0  0  0  0  0  0  0  0  0  0
    1.3507   -0.1146   -0.2506 C   0  0  0  0  0  0  0  0  0  0  0  0
    2.6548    0.0472   -0.3367 O   0  0  0  0  0  0  0  0  0  0  0  0
    3.5444   -1.0838   -0.4802 C   0  0  0  0  0  0  0  0  0  0  0  0
    0.6893   -1.3757   -0.2887 C   0  0  0  0  0  0  0  0  0  0  0  0
   -0.6800   -1.4517   -0.1902 C   0  0  0  0  0  0  0  0  0  0  0  0
   -2.8965    4.4558    0.3839 H   0  0  0  0  0  0  0  0  0  0  0  0
    1.1309    2.0381   -0.0845 H   0  0  0  0  0  0  0  0  0  0  0  0
    4.5429   -0.6535   -0.5197 H   0  0  0  0  0  0  0  0  0  0  0  0
    3.3313   -1.6195   -1.4093 H   0  0  0  0  0  0  0  0  0  0  0  0
    3.4566   -1.7480    0.3839 H   0  0  0  0  0  0  0  0  0  0  0  0
    1.2611   -2.2886   -0.3958 H   0  0  0  0  0  0  0  0  0  0  0  0
   -1.1940   -2.4088   -0.2182 H   0  0  0  0  0  0  0  0  0  0  0  0
  1  4  1  0  0  0  0
  1  2  1  0  0  0  0
  2  3  1  0  0  0  0
  5 12  1  0  0  0  0
  5  4  2  0  0  0  0
  6  5  1  0  0  0  0
  7  6  1  0  0  0  0
  8  7  1  0  0  0  0
  8 15  1  0  0  0  0
  9  6  2  0  0  0  0
  9 10  1  0  0  0  0
 10  1  2  0  0  0  0
 13  8  1  0  0  0  0
 14  8  1  0  0  0  0
 16  9  1  0  0  0  0
 17 10  1  0  0  0  0
M  RAD  4   2   2   3   3   4   2  11   2
M  END
