Coordinates from ORCA-job 4-MeOPhN2+_B3LYPG-6-31G_dp-d09-49-n800
 OpenBabel11261919463D

 17 16  0  0  0  0  0  0  0  0999 V2000
   -1.4853   -0.0887   -0.0346 C   0  0  0  0  0  0  0  0  0  0  0  0
   -2.8364   -0.1229    0.0664 N   0  0  0  0  0  0  0  0  0  0  0  0
   -3.9535   -0.1475    0.1501 N   0  0  0  0  0  0  0  0  0  0  0  0
   -0.8165    1.1565    0.0008 C   0  0  0  0  0  0  0  0  0  0  0  0
    0.5415    1.2118   -0.0982 C   0  0  0  0  0  0  0  0  0  0  0  0
    1.2773   -0.0016   -0.2375 C   0  0  0  0  0  0  0  0  0  0  0  0
    2.5845    0.1446   -0.3249 O   0  0  0  0  0  0  0  0  0  0  0  0
    3.4576   -0.9977   -0.4675 C   0  0  0  0  0  0  0  0  0  0  0  0
    0.6039   -1.2531   -0.2735 C   0  0  0  0  0  0  0  0  0  0  0  0
   -0.7679   -1.3044   -0.1732 C   0  0  0  0  0  0  0  0  0  0  0  0
   -1.6711    2.4713    0.1566 H   0  0  0  0  0  0  0  0  0  0  0  0
    1.0853    2.1487   -0.0743 H   0  0  0  0  0  0  0  0  0  0  0  0
    4.4621   -0.5816   -0.5089 H   0  0  0  0  0  0  0  0  0  0  0  0
    3.2370   -1.5325   -1.3955 H   0  0  0  0  0  0  0  0  0  0  0  0
    3.3625   -1.6600    0.3974 H   0  0  0  0  0  0  0  0  0  0  0  0
    1.1600   -2.1757   -0.3797 H   0  0  0  0  0  0  0  0  0  0  0  0
   -1.2960   -2.2518   -0.1991 H   0  0  0  0  0  0  0  0  0  0  0  0
  1  4  1  0  0  0  0
  1  2  1  0  0  0  0
  2  3  1  0  0  0  0
  5 12  1  0  0  0  0
  5  4  2  0  0  0  0
  6  5  1  0  0  0  0
  7  6  1  0  0  0  0
  8  7  1  0  0  0  0
  8 15  1  0  0  0  0
  9  6  2  0  0  0  0
  9 10  1  0  0  0  0
 10  1  2  0  0  0  0
 13  8  1  0  0  0  0
 14  8  1  0  0  0  0
 16  9  1  0  0  0  0
 17 10  1  0  0  0  0
M  RAD  4   2   2   3   3   4   2  11   2
M  END
