Coordinates from ORCA-job 4-MeOPhN2+_B3LYPG-6-31G_dp-d09-49-n800
 OpenBabel11261919463D

 17 16  0  0  0  0  0  0  0  0999 V2000
   -1.4341   -0.1769   -0.0445 C   0  0  0  0  0  0  0  0  0  0  0  0
   -2.7868   -0.2046    0.0572 N   0  0  0  0  0  0  0  0  0  0  0  0
   -3.9033   -0.2257    0.1416 N   0  0  0  0  0  0  0  0  0  0  0  0
   -0.7419    1.0407   -0.0128 C   0  0  0  0  0  0  0  0  0  0  0  0
    0.5995    1.1392   -0.1077 C   0  0  0  0  0  0  0  0  0  0  0  0
    1.3426   -0.0802   -0.2480 C   0  0  0  0  0  0  0  0  0  0  0  0
    2.6476    0.0661   -0.3353 O   0  0  0  0  0  0  0  0  0  0  0  0
    3.5247   -1.0754   -0.4778 C   0  0  0  0  0  0  0  0  0  0  0  0
    0.6652   -1.3327   -0.2839 C   0  0  0  0  0  0  0  0  0  0  0  0
   -0.7052   -1.3926   -0.1842 C   0  0  0  0  0  0  0  0  0  0  0  0
   -2.6668    3.7780    0.3223 H   0  0  0  0  0  0  0  0  0  0  0  0
    1.1456    2.0784   -0.0839 H   0  0  0  0  0  0  0  0  0  0  0  0
    4.5277   -0.6558   -0.5185 H   0  0  0  0  0  0  0  0  0  0  0  0
    3.3046   -1.6095   -1.4061 H   0  0  0  0  0  0  0  0  0  0  0  0
    3.4297   -1.7369    0.3875 H   0  0  0  0  0  0  0  0  0  0  0  0
    1.2255   -2.2528   -0.3904 H   0  0  0  0  0  0  0  0  0  0  0  0
   -1.2298   -2.3438   -0.2107 H   0  0  0  0  0  0  0  0  0  0  0  0
  1  4  1  0  0  0  0
  1  2  1  0  0  0  0
  2  3  1  0  0  0  0
  5 12  1  0  0  0  0
  5  4  2  0  0  0  0
  6  5  1  0  0  0  0
  7  6  1  0  0  0  0
  8  7  1  0  0  0  0
  8 15  1  0  0  0  0
  9  6  2  0  0  0  0
  9 10  1  0  0  0  0
 10  1  2  0  0  0  0
 13  8  1  0  0  0  0
 14  8  1  0  0  0  0
 16  9  1  0  0  0  0
 17 10  1  0  0  0  0
M  RAD  4   2   2   3   3   4   2  11   2
M  END
