Coordinates from ORCA-job 4-MeOPhN2+_B3LYPG-6-31G_dp-d09-49-n800
 OpenBabel11261919463D

 17 17  0  0  0  0  0  0  0  0999 V2000
   -1.4900   -0.0721   -0.0330 C   0  0  0  0  0  0  0  0  0  0  0  0
   -2.8421   -0.1121    0.0672 N   0  0  0  0  0  0  0  0  0  0  0  0
   -3.9595   -0.1409    0.1502 N   0  0  0  0  0  0  0  0  0  0  0  0
   -0.8321    1.1840    0.0040 C   0  0  0  0  0  0  0  0  0  0  0  0
    0.5313    1.2201   -0.0965 C   0  0  0  0  0  0  0  0  0  0  0  0
    1.2677    0.0093   -0.2355 C   0  0  0  0  0  0  0  0  0  0  0  0
    2.5754    0.1561   -0.3230 O   0  0  0  0  0  0  0  0  0  0  0  0
    3.4479   -0.9861   -0.4663 C   0  0  0  0  0  0  0  0  0  0  0  0
    0.5950   -1.2415   -0.2716 C   0  0  0  0  0  0  0  0  0  0  0  0
   -0.7770   -1.2888   -0.1711 C   0  0  0  0  0  0  0  0  0  0  0  0
   -1.5241    2.2718    0.1313 H   0  0  0  0  0  0  0  0  0  0  0  0
    1.0779    2.1557   -0.0730 H   0  0  0  0  0  0  0  0  0  0  0  0
    4.4526   -0.5706   -0.5079 H   0  0  0  0  0  0  0  0  0  0  0  0
    3.2269   -1.5208   -1.3943 H   0  0  0  0  0  0  0  0  0  0  0  0
    3.3531   -1.6489    0.3984 H   0  0  0  0  0  0  0  0  0  0  0  0
    1.1495   -2.1651   -0.3777 H   0  0  0  0  0  0  0  0  0  0  0  0
   -1.3074   -2.2347   -0.1967 H   0  0  0  0  0  0  0  0  0  0  0  0
  1  4  1  0  0  0  0
  1  2  1  0  0  0  0
  2  3  1  0  0  0  0
  4 11  1  0  0  0  0
  5 12  1  0  0  0  0
  5  4  2  0  0  0  0
  6  5  1  0  0  0  0
  7  6  1  0  0  0  0
  8  7  1  0  0  0  0
  8 15  1  0  0  0  0
  9  6  2  0  0  0  0
  9 10  1  0  0  0  0
 10  1  2  0  0  0  0
 13  8  1  0  0  0  0
 14  8  1  0  0  0  0
 16  9  1  0  0  0  0
 17 10  1  0  0  0  0
M  RAD  2   2   2   3   3
M  END
