Coordinates from ORCA-job 4-MeOPhN2+_B3LYPG-6-31G_dp-d09-49-n800
 OpenBabel11261919463D

 17 16  0  0  0  0  0  0  0  0999 V2000
   -1.4795   -0.1052   -0.0361 C   0  0  0  0  0  0  0  0  0  0  0  0
   -2.8300   -0.1332    0.0654 N   0  0  0  0  0  0  0  0  0  0  0  0
   -3.9468   -0.1532    0.1496 N   0  0  0  0  0  0  0  0  0  0  0  0
   -0.7995    1.1287   -0.0024 C   0  0  0  0  0  0  0  0  0  0  0  0
    0.5527    1.2023   -0.0999 C   0  0  0  0  0  0  0  0  0  0  0  0
    1.2884   -0.0140   -0.2394 C   0  0  0  0  0  0  0  0  0  0  0  0
    2.5950    0.1318   -0.3269 O   0  0  0  0  0  0  0  0  0  0  0  0
    3.4690   -1.0106   -0.4691 C   0  0  0  0  0  0  0  0  0  0  0  0
    0.6136   -1.2657   -0.2754 C   0  0  0  0  0  0  0  0  0  0  0  0
   -0.7580   -1.3201   -0.1752 C   0  0  0  0  0  0  0  0  0  0  0  0
   -1.8358    2.6817    0.1836 H   0  0  0  0  0  0  0  0  0  0  0  0
    1.0944    2.1406   -0.0755 H   0  0  0  0  0  0  0  0  0  0  0  0
    4.4730   -0.5937   -0.5102 H   0  0  0  0  0  0  0  0  0  0  0  0
    3.2485   -1.5453   -1.3972 H   0  0  0  0  0  0  0  0  0  0  0  0
    3.3736   -1.6724    0.3961 H   0  0  0  0  0  0  0  0  0  0  0  0
    1.1709   -2.1875   -0.3818 H   0  0  0  0  0  0  0  0  0  0  0  0
   -1.2845   -2.2688   -0.2012 H   0  0  0  0  0  0  0  0  0  0  0  0
  1  4  1  0  0  0  0
  1  2  1  0  0  0  0
  2  3  1  0  0  0  0
  5 12  1  0  0  0  0
  5  4  2  0  0  0  0
  6  5  1  0  0  0  0
  7  6  1  0  0  0  0
  8  7  1  0  0  0  0
  8 15  1  0  0  0  0
  9  6  2  0  0  0  0
  9 10  1  0  0  0  0
 10  1  2  0  0  0  0
 13  8  1  0  0  0  0
 14  8  1  0  0  0  0
 16  9  1  0  0  0  0
 17 10  1  0  0  0  0
M  RAD  4   2   2   3   3   4   2  11   2
M  END
