Coordinates from ORCA-job 4-MeOPhN2+_B3LYPG-6-31G_dp-d09-49-n800
 OpenBabel11261919463D

 17 16  0  0  0  0  0  0  0  0999 V2000
   -1.4548   -0.1440   -0.0407 C   0  0  0  0  0  0  0  0  0  0  0  0
   -2.8061   -0.1649    0.0614 N   0  0  0  0  0  0  0  0  0  0  0  0
   -3.9226   -0.1794    0.1454 N   0  0  0  0  0  0  0  0  0  0  0  0
   -0.7582    1.0725   -0.0097 C   0  0  0  0  0  0  0  0  0  0  0  0
    0.5841    1.1698   -0.1049 C   0  0  0  0  0  0  0  0  0  0  0  0
    1.3222   -0.0511   -0.2448 C   0  0  0  0  0  0  0  0  0  0  0  0
    2.6274    0.0931   -0.3323 O   0  0  0  0  0  0  0  0  0  0  0  0
    3.5024   -1.0501   -0.4743 C   0  0  0  0  0  0  0  0  0  0  0  0
    0.6429   -1.3022   -0.2801 C   0  0  0  0  0  0  0  0  0  0  0  0
   -0.7282   -1.3596   -0.1801 C   0  0  0  0  0  0  0  0  0  0  0  0
   -2.3323    3.2828    0.2641 H   0  0  0  0  0  0  0  0  0  0  0  0
    1.1273    2.1092   -0.0808 H   0  0  0  0  0  0  0  0  0  0  0  0
    4.5060   -0.6322   -0.5153 H   0  0  0  0  0  0  0  0  0  0  0  0
    3.2813   -1.5843   -1.4023 H   0  0  0  0  0  0  0  0  0  0  0  0
    3.4063   -1.7109    0.3915 H   0  0  0  0  0  0  0  0  0  0  0  0
    1.2011   -2.2236   -0.3864 H   0  0  0  0  0  0  0  0  0  0  0  0
   -1.2539   -2.3097   -0.2062 H   0  0  0  0  0  0  0  0  0  0  0  0
  1  4  1  0  0  0  0
  1  2  1  0  0  0  0
  2  3  1  0  0  0  0
  5 12  1  0  0  0  0
  5  4  2  0  0  0  0
  6  5  1  0  0  0  0
  7  6  1  0  0  0  0
  8  7  1  0  0  0  0
  8 15  1  0  0  0  0
  9  6  2  0  0  0  0
  9 10  1  0  0  0  0
 10  1  2  0  0  0  0
 13  8  1  0  0  0  0
 14  8  1  0  0  0  0
 16  9  1  0  0  0  0
 17 10  1  0  0  0  0
M  RAD  4   2   2   3   3   4   2  11   2
M  END
