Coordinates from ORCA-job 4-MeOPhN2+_B3LYPG-6-31G_dp-d09-49-n800
 OpenBabel11261919463D

 17 16  0  0  0  0  0  0  0  0999 V2000
   -1.4400   -0.1655   -0.0433 C   0  0  0  0  0  0  0  0  0  0  0  0
   -2.7922   -0.1902    0.0585 N   0  0  0  0  0  0  0  0  0  0  0  0
   -3.9088   -0.2086    0.1427 N   0  0  0  0  0  0  0  0  0  0  0  0
   -0.7454    1.0511   -0.0121 C   0  0  0  0  0  0  0  0  0  0  0  0
    0.5960    1.1490   -0.1071 C   0  0  0  0  0  0  0  0  0  0  0  0
    1.3371   -0.0714   -0.2471 C   0  0  0  0  0  0  0  0  0  0  0  0
    2.6421    0.0738   -0.3345 O   0  0  0  0  0  0  0  0  0  0  0  0
    3.5183   -1.0685   -0.4768 C   0  0  0  0  0  0  0  0  0  0  0  0
    0.6584   -1.3230   -0.2827 C   0  0  0  0  0  0  0  0  0  0  0  0
   -0.7122   -1.3815   -0.1828 C   0  0  0  0  0  0  0  0  0  0  0  0
   -2.5719    3.6199    0.3051 H   0  0  0  0  0  0  0  0  0  0  0  0
    1.1417    2.0879   -0.0833 H   0  0  0  0  0  0  0  0  0  0  0  0
    4.5216   -0.6496   -0.5176 H   0  0  0  0  0  0  0  0  0  0  0  0
    3.2977   -1.6025   -1.4050 H   0  0  0  0  0  0  0  0  0  0  0  0
    3.4228   -1.7296    0.3887 H   0  0  0  0  0  0  0  0  0  0  0  0
    1.2176   -2.2438   -0.3890 H   0  0  0  0  0  0  0  0  0  0  0  0
   -1.2377   -2.3320   -0.2091 H   0  0  0  0  0  0  0  0  0  0  0  0
  1  4  1  0  0  0  0
  1  2  1  0  0  0  0
  2  3  1  0  0  0  0
  5 12  1  0  0  0  0
  5  4  2  0  0  0  0
  6  5  1  0  0  0  0
  7  6  1  0  0  0  0
  8  7  1  0  0  0  0
  8 15  1  0  0  0  0
  9  6  2  0  0  0  0
  9 10  1  0  0  0  0
 10  1  2  0  0  0  0
 13  8  1  0  0  0  0
 14  8  1  0  0  0  0
 16  9  1  0  0  0  0
 17 10  1  0  0  0  0
M  RAD  4   2   2   3   3   4   2  11   2
M  END
