Coordinates from ORCA-job 4-MeOPhN2+_B3LYPG-6-31G_dp-d09-49-n800
 OpenBabel11261919463D

 17 16  0  0  0  0  0  0  0  0999 V2000
   -1.4281   -0.1928   -0.0458 C   0  0  0  0  0  0  0  0  0  0  0  0
   -2.7812   -0.2251    0.0556 N   0  0  0  0  0  0  0  0  0  0  0  0
   -3.8978   -0.2503    0.1396 N   0  0  0  0  0  0  0  0  0  0  0  0
   -0.7405    1.0273   -0.0133 C   0  0  0  0  0  0  0  0  0  0  0  0
    0.6010    1.1266   -0.1082 C   0  0  0  0  0  0  0  0  0  0  0  0
    1.3474   -0.0907   -0.2489 C   0  0  0  0  0  0  0  0  0  0  0  0
    2.6522    0.0583   -0.3359 O   0  0  0  0  0  0  0  0  0  0  0  0
    3.5316   -1.0813   -0.4789 C   0  0  0  0  0  0  0  0  0  0  0  0
    0.6728   -1.3448   -0.2853 C   0  0  0  0  0  0  0  0  0  0  0  0
   -0.6973   -1.4075   -0.1859 C   0  0  0  0  0  0  0  0  0  0  0  0
   -2.7612    3.9714    0.3413 H   0  0  0  0  0  0  0  0  0  0  0  0
    1.1467    2.0664   -0.0842 H   0  0  0  0  0  0  0  0  0  0  0  0
    4.5338   -0.6598   -0.5194 H   0  0  0  0  0  0  0  0  0  0  0  0
    3.3126   -1.6154   -1.4075 H   0  0  0  0  0  0  0  0  0  0  0  0
    3.4379   -1.7435    0.3860 H   0  0  0  0  0  0  0  0  0  0  0  0
    1.2353   -2.2636   -0.3921 H   0  0  0  0  0  0  0  0  0  0  0  0
   -1.2201   -2.3597   -0.2128 H   0  0  0  0  0  0  0  0  0  0  0  0
  1  4  1  0  0  0  0
  1  2  1  0  0  0  0
  2  3  1  0  0  0  0
  5 12  1  0  0  0  0
  5  4  2  0  0  0  0
  6  5  1  0  0  0  0
  7  6  1  0  0  0  0
  8  7  1  0  0  0  0
  8 15  1  0  0  0  0
  9  6  2  0  0  0  0
  9 10  1  0  0  0  0
 10  1  2  0  0  0  0
 13  8  1  0  0  0  0
 14  8  1  0  0  0  0
 16  9  1  0  0  0  0
 17 10  1  0  0  0  0
M  RAD  4   2   2   3   3   4   2  11   2
M  END
