Coordinates from ORCA-job 4-MeOPhN2+_B3LYPG-6-31G_dp-d09-49-n800
 OpenBabel11261919463D

 17 17  0  0  0  0  0  0  0  0999 V2000
   -1.4950   -0.0554   -0.0314 C   0  0  0  0  0  0  0  0  0  0  0  0
   -2.8482   -0.0986    0.0688 N   0  0  0  0  0  0  0  0  0  0  0  0
   -3.9656   -0.1296    0.1518 N   0  0  0  0  0  0  0  0  0  0  0  0
   -0.8456    1.2090    0.0068 C   0  0  0  0  0  0  0  0  0  0  0  0
    0.5215    1.2291   -0.0955 C   0  0  0  0  0  0  0  0  0  0  0  0
    1.2590    0.0203   -0.2347 C   0  0  0  0  0  0  0  0  0  0  0  0
    2.5669    0.1676   -0.3223 O   0  0  0  0  0  0  0  0  0  0  0  0
    3.4390   -0.9748   -0.4646 C   0  0  0  0  0  0  0  0  0  0  0  0
    0.5862   -1.2294   -0.2705 C   0  0  0  0  0  0  0  0  0  0  0  0
   -0.7862   -1.2730   -0.1695 C   0  0  0  0  0  0  0  0  0  0  0  0
   -1.3827    2.0646    0.1073 H   0  0  0  0  0  0  0  0  0  0  0  0
    1.0699    2.1641   -0.0720 H   0  0  0  0  0  0  0  0  0  0  0  0
    4.4439   -0.5597   -0.5061 H   0  0  0  0  0  0  0  0  0  0  0  0
    3.2182   -1.5101   -1.3923 H   0  0  0  0  0  0  0  0  0  0  0  0
    3.3438   -1.6371    0.4004 H   0  0  0  0  0  0  0  0  0  0  0  0
    1.1389   -2.1542   -0.3767 H   0  0  0  0  0  0  0  0  0  0  0  0
   -1.3189   -2.2176   -0.1949 H   0  0  0  0  0  0  0  0  0  0  0  0
  1  4  1  0  0  0  0
  1  2  1  0  0  0  0
  2  3  1  0  0  0  0
  4 11  1  0  0  0  0
  5 12  1  0  0  0  0
  5  4  2  0  0  0  0
  6  5  1  0  0  0  0
  7  6  1  0  0  0  0
  8  7  1  0  0  0  0
  8 15  1  0  0  0  0
  9  6  2  0  0  0  0
  9 10  1  0  0  0  0
 10  1  2  0  0  0  0
 13  8  1  0  0  0  0
 14  8  1  0  0  0  0
 16  9  1  0  0  0  0
 17 10  1  0  0  0  0
M  RAD  2   2   2   3   3
M  END
