Coordinates from ORCA-job 4-MeOPhN2+_B3LYPG-6-31G_dp-d09-49-n800
 OpenBabel11261919463D

 17 16  0  0  0  0  0  0  0  0999 V2000
   -1.4505   -0.1494   -0.0415 C   0  0  0  0  0  0  0  0  0  0  0  0
   -2.8018   -0.1710    0.0605 N   0  0  0  0  0  0  0  0  0  0  0  0
   -3.9183   -0.1863    0.1448 N   0  0  0  0  0  0  0  0  0  0  0  0
   -0.7537    1.0668   -0.0106 C   0  0  0  0  0  0  0  0  0  0  0  0
    0.5882    1.1643   -0.1056 C   0  0  0  0  0  0  0  0  0  0  0  0
    1.3268   -0.0569   -0.2455 C   0  0  0  0  0  0  0  0  0  0  0  0
    2.6320    0.0873   -0.3330 O   0  0  0  0  0  0  0  0  0  0  0  0
    3.5071   -1.0558   -0.4750 C   0  0  0  0  0  0  0  0  0  0  0  0
    0.6473   -1.3079   -0.2808 C   0  0  0  0  0  0  0  0  0  0  0  0
   -0.7236   -1.3653   -0.1808 C   0  0  0  0  0  0  0  0  0  0  0  0
   -2.4046    3.3751    0.2761 H   0  0  0  0  0  0  0  0  0  0  0  0
    1.1324    2.1034   -0.0817 H   0  0  0  0  0  0  0  0  0  0  0  0
    4.5107   -0.6378   -0.5160 H   0  0  0  0  0  0  0  0  0  0  0  0
    3.2861   -1.5899   -1.4031 H   0  0  0  0  0  0  0  0  0  0  0  0
    3.4111   -1.7166    0.3907 H   0  0  0  0  0  0  0  0  0  0  0  0
    1.2056   -2.2292   -0.3871 H   0  0  0  0  0  0  0  0  0  0  0  0
   -1.2496   -2.3153   -0.2069 H   0  0  0  0  0  0  0  0  0  0  0  0
  1  4  1  0  0  0  0
  1  2  1  0  0  0  0
  2  3  1  0  0  0  0
  5 12  1  0  0  0  0
  5  4  2  0  0  0  0
  6  5  1  0  0  0  0
  7  6  1  0  0  0  0
  8  7  1  0  0  0  0
  8 15  1  0  0  0  0
  9  6  2  0  0  0  0
  9 10  1  0  0  0  0
 10  1  2  0  0  0  0
 13  8  1  0  0  0  0
 14  8  1  0  0  0  0
 16  9  1  0  0  0  0
 17 10  1  0  0  0  0
M  RAD  4   2   2   3   3   4   2  11   2
M  END
