Coordinates from ORCA-job 4-MeOPhN2+_B3LYPG-6-31G_dp-d09-49-n800
 OpenBabel11261919463D

 17 17  0  0  0  0  0  0  0  0999 V2000
   -1.4916   -0.0664   -0.0324 C   0  0  0  0  0  0  0  0  0  0  0  0
   -2.8441   -0.1079    0.0676 N   0  0  0  0  0  0  0  0  0  0  0  0
   -3.9615   -0.1378    0.1505 N   0  0  0  0  0  0  0  0  0  0  0  0
   -0.8370    1.1930    0.0050 C   0  0  0  0  0  0  0  0  0  0  0  0
    0.5279    1.2230   -0.0960 C   0  0  0  0  0  0  0  0  0  0  0  0
    1.2646    0.0130   -0.2351 C   0  0  0  0  0  0  0  0  0  0  0  0
    2.5725    0.1600   -0.3226 O   0  0  0  0  0  0  0  0  0  0  0  0
    3.4448   -0.9822   -0.4658 C   0  0  0  0  0  0  0  0  0  0  0  0
    0.5921   -1.2375   -0.2711 C   0  0  0  0  0  0  0  0  0  0  0  0
   -0.7801   -1.2834   -0.1705 C   0  0  0  0  0  0  0  0  0  0  0  0
   -1.4756    2.2025    0.1230 H   0  0  0  0  0  0  0  0  0  0  0  0
    1.0754    2.1583   -0.0726 H   0  0  0  0  0  0  0  0  0  0  0  0
    4.4495   -0.5669   -0.5075 H   0  0  0  0  0  0  0  0  0  0  0  0
    3.2238   -1.5170   -1.3938 H   0  0  0  0  0  0  0  0  0  0  0  0
    3.3500   -1.6450    0.3989 H   0  0  0  0  0  0  0  0  0  0  0  0
    1.1459   -2.1615   -0.3772 H   0  0  0  0  0  0  0  0  0  0  0  0
   -1.3113   -2.2288   -0.1960 H   0  0  0  0  0  0  0  0  0  0  0  0
  1  4  1  0  0  0  0
  1  2  1  0  0  0  0
  2  3  1  0  0  0  0
  4 11  1  0  0  0  0
  5 12  1  0  0  0  0
  5  4  2  0  0  0  0
  6  5  1  0  0  0  0
  7  6  1  0  0  0  0
  8  7  1  0  0  0  0
  8 15  1  0  0  0  0
  9  6  2  0  0  0  0
  9 10  1  0  0  0  0
 10  1  2  0  0  0  0
 13  8  1  0  0  0  0
 14  8  1  0  0  0  0
 16  9  1  0  0  0  0
 17 10  1  0  0  0  0
M  RAD  2   2   2   3   3
M  END
