Coordinates from ORCA-job 4-MeOPhN2+_B3LYPG-6-31G_dp-d09-49-n800
 OpenBabel11261919463D

 17 16  0  0  0  0  0  0  0  0999 V2000
   -1.4442   -0.1594   -0.0426 C   0  0  0  0  0  0  0  0  0  0  0  0
   -2.7961   -0.1828    0.0594 N   0  0  0  0  0  0  0  0  0  0  0  0
   -3.9126   -0.2000    0.1431 N   0  0  0  0  0  0  0  0  0  0  0  0
   -0.7484    1.0567   -0.0117 C   0  0  0  0  0  0  0  0  0  0  0  0
    0.5931    1.1550   -0.1066 C   0  0  0  0  0  0  0  0  0  0  0  0
    1.3333   -0.0658   -0.2466 C   0  0  0  0  0  0  0  0  0  0  0  0
    2.6383    0.0789   -0.3340 O   0  0  0  0  0  0  0  0  0  0  0  0
    3.5141   -1.0637   -0.4761 C   0  0  0  0  0  0  0  0  0  0  0  0
    0.6541   -1.3172   -0.2819 C   0  0  0  0  0  0  0  0  0  0  0  0
   -0.7166   -1.3753   -0.1820 C   0  0  0  0  0  0  0  0  0  0  0  0
   -2.5080    3.5262    0.2944 H   0  0  0  0  0  0  0  0  0  0  0  0
    1.1381    2.0941   -0.0829 H   0  0  0  0  0  0  0  0  0  0  0  0
    4.5175   -0.6452   -0.5170 H   0  0  0  0  0  0  0  0  0  0  0  0
    3.2933   -1.5978   -1.4042 H   0  0  0  0  0  0  0  0  0  0  0  0
    3.4184   -1.7246    0.3896 H   0  0  0  0  0  0  0  0  0  0  0  0
    1.2130   -2.2382   -0.3882 H   0  0  0  0  0  0  0  0  0  0  0  0
   -1.2422   -2.3257   -0.2081 H   0  0  0  0  0  0  0  0  0  0  0  0
  1  4  1  0  0  0  0
  1  2  1  0  0  0  0
  2  3  1  0  0  0  0
  5 12  1  0  0  0  0
  5  4  2  0  0  0  0
  6  5  1  0  0  0  0
  7  6  1  0  0  0  0
  8  7  1  0  0  0  0
  8 15  1  0  0  0  0
  9  6  2  0  0  0  0
  9 10  1  0  0  0  0
 10  1  2  0  0  0  0
 13  8  1  0  0  0  0
 14  8  1  0  0  0  0
 16  9  1  0  0  0  0
 17 10  1  0  0  0  0
M  RAD  4   2   2   3   3   4   2  11   2
M  END
