Coordinates from ORCA-job 4-MeOPhN2+_B3LYPG-6-31G_dp-d09-49-n800
 OpenBabel11261919463D

 17 16  0  0  0  0  0  0  0  0999 V2000
   -1.4364   -0.1720   -0.0440 C   0  0  0  0  0  0  0  0  0  0  0  0
   -2.7888   -0.1984    0.0578 N   0  0  0  0  0  0  0  0  0  0  0  0
   -3.9054   -0.2183    0.1419 N   0  0  0  0  0  0  0  0  0  0  0  0
   -0.7432    1.0452   -0.0125 C   0  0  0  0  0  0  0  0  0  0  0  0
    0.5982    1.1430   -0.1075 C   0  0  0  0  0  0  0  0  0  0  0  0
    1.3404   -0.0767   -0.2477 C   0  0  0  0  0  0  0  0  0  0  0  0
    2.6454    0.0692   -0.3349 O   0  0  0  0  0  0  0  0  0  0  0  0
    3.5222   -1.0726   -0.4775 C   0  0  0  0  0  0  0  0  0  0  0  0
    0.6624   -1.3288   -0.2834 C   0  0  0  0  0  0  0  0  0  0  0  0
   -0.7081   -1.3879   -0.1836 C   0  0  0  0  0  0  0  0  0  0  0  0
   -2.6289    3.7126    0.3152 H   0  0  0  0  0  0  0  0  0  0  0  0
    1.1443    2.0820   -0.0837 H   0  0  0  0  0  0  0  0  0  0  0  0
    4.5252   -0.6533   -0.5182 H   0  0  0  0  0  0  0  0  0  0  0  0
    3.3018   -1.6067   -1.4057 H   0  0  0  0  0  0  0  0  0  0  0  0
    3.4270   -1.7339    0.3880 H   0  0  0  0  0  0  0  0  0  0  0  0
    1.2222   -2.2493   -0.3898 H   0  0  0  0  0  0  0  0  0  0  0  0
   -1.2332   -2.3387   -0.2100 H   0  0  0  0  0  0  0  0  0  0  0  0
  1  4  1  0  0  0  0
  1  2  1  0  0  0  0
  2  3  1  0  0  0  0
  5 12  1  0  0  0  0
  5  4  2  0  0  0  0
  6  5  1  0  0  0  0
  7  6  1  0  0  0  0
  8  7  1  0  0  0  0
  8 15  1  0  0  0  0
  9  6  2  0  0  0  0
  9 10  1  0  0  0  0
 10  1  2  0  0  0  0
 13  8  1  0  0  0  0
 14  8  1  0  0  0  0
 16  9  1  0  0  0  0
 17 10  1  0  0  0  0
M  RAD  4   2   2   3   3   4   2  11   2
M  END
