Coordinates from ORCA-job 4-MeOPhN2+_B3LYPG-6-31G_dp-d09-49-n800
 OpenBabel11261919463D

 17 17  0  0  0  0  0  0  0  0999 V2000
   -1.4876   -0.0808   -0.0338 C   0  0  0  0  0  0  0  0  0  0  0  0
   -2.8392   -0.1179    0.0667 N   0  0  0  0  0  0  0  0  0  0  0  0
   -3.9564   -0.1447    0.1501 N   0  0  0  0  0  0  0  0  0  0  0  0
   -0.8242    1.1698    0.0023 C   0  0  0  0  0  0  0  0  0  0  0  0
    0.5365    1.2158   -0.0973 C   0  0  0  0  0  0  0  0  0  0  0  0
    1.2725    0.0037   -0.2365 C   0  0  0  0  0  0  0  0  0  0  0  0
    2.5801    0.1502   -0.3239 O   0  0  0  0  0  0  0  0  0  0  0  0
    3.4528   -0.9921   -0.4670 C   0  0  0  0  0  0  0  0  0  0  0  0
    0.5996   -1.2475   -0.2725 C   0  0  0  0  0  0  0  0  0  0  0  0
   -0.7723   -1.2969   -0.1722 C   0  0  0  0  0  0  0  0  0  0  0  0
   -1.5994    2.3758    0.1444 H   0  0  0  0  0  0  0  0  0  0  0  0
    1.0817    2.1520   -0.0736 H   0  0  0  0  0  0  0  0  0  0  0  0
    4.4574   -0.5763   -0.5084 H   0  0  0  0  0  0  0  0  0  0  0  0
    3.2319   -1.5268   -1.3950 H   0  0  0  0  0  0  0  0  0  0  0  0
    3.3579   -1.6546    0.3978 H   0  0  0  0  0  0  0  0  0  0  0  0
    1.1550   -2.1706   -0.3787 H   0  0  0  0  0  0  0  0  0  0  0  0
   -1.3015   -2.2437   -0.1979 H   0  0  0  0  0  0  0  0  0  0  0  0
  1  4  1  0  0  0  0
  1  2  1  0  0  0  0
  2  3  1  0  0  0  0
  4 11  1  0  0  0  0
  5 12  1  0  0  0  0
  5  4  2  0  0  0  0
  6  5  1  0  0  0  0
  7  6  1  0  0  0  0
  8  7  1  0  0  0  0
  8 15  1  0  0  0  0
  9  6  2  0  0  0  0
  9 10  1  0  0  0  0
 10  1  2  0  0  0  0
 13  8  1  0  0  0  0
 14  8  1  0  0  0  0
 16  9  1  0  0  0  0
 17 10  1  0  0  0  0
M  RAD  2   2   2   3   3
M  END
