Coordinates from ORCA-job 4-MeOPhN2+_B3LYPG-6-31G_dp-d09-49-n800
 OpenBabel11261919463D

 17 16  0  0  0  0  0  0  0  0999 V2000
   -1.4587   -0.1400   -0.0402 C   0  0  0  0  0  0  0  0  0  0  0  0
   -2.8096   -0.1611    0.0619 N   0  0  0  0  0  0  0  0  0  0  0  0
   -3.9261   -0.1758    0.1463 N   0  0  0  0  0  0  0  0  0  0  0  0
   -0.7631    1.0778   -0.0090 C   0  0  0  0  0  0  0  0  0  0  0  0
    0.5799    1.1740   -0.1043 C   0  0  0  0  0  0  0  0  0  0  0  0
    1.3178   -0.0466   -0.2442 C   0  0  0  0  0  0  0  0  0  0  0  0
    2.6231    0.0981   -0.3316 O   0  0  0  0  0  0  0  0  0  0  0  0
    3.4983   -1.0448   -0.4736 C   0  0  0  0  0  0  0  0  0  0  0  0
    0.6391   -1.2978   -0.2796 C   0  0  0  0  0  0  0  0  0  0  0  0
   -0.7320   -1.3552   -0.1796 C   0  0  0  0  0  0  0  0  0  0  0  0
   -2.2675    3.2093    0.2540 H   0  0  0  0  0  0  0  0  0  0  0  0
    1.1224    2.1135   -0.0801 H   0  0  0  0  0  0  0  0  0  0  0  0
    4.5018   -0.6268   -0.5145 H   0  0  0  0  0  0  0  0  0  0  0  0
    3.2775   -1.5791   -1.4016 H   0  0  0  0  0  0  0  0  0  0  0  0
    3.4024   -1.7057    0.3922 H   0  0  0  0  0  0  0  0  0  0  0  0
    1.1974   -2.2191   -0.3859 H   0  0  0  0  0  0  0  0  0  0  0  0
   -1.2576   -2.3053   -0.2057 H   0  0  0  0  0  0  0  0  0  0  0  0
  1  4  1  0  0  0  0
  1  2  1  0  0  0  0
  2  3  1  0  0  0  0
  5 12  1  0  0  0  0
  5  4  2  0  0  0  0
  6  5  1  0  0  0  0
  7  6  1  0  0  0  0
  8  7  1  0  0  0  0
  8 15  1  0  0  0  0
  9  6  2  0  0  0  0
  9 10  1  0  0  0  0
 10  1  2  0  0  0  0
 13  8  1  0  0  0  0
 14  8  1  0  0  0  0
 16  9  1  0  0  0  0
 17 10  1  0  0  0  0
M  RAD  4   2   2   3   3   4   2  11   2
M  END
