Coordinates from ORCA-job 4-MeOPhN2+_B3LYPG-6-31G_dp-d09-49-n800
 OpenBabel11261919463D

 17 16  0  0  0  0  0  0  0  0999 V2000
   -1.4748   -0.1156   -0.0372 C   0  0  0  0  0  0  0  0  0  0  0  0
   -2.8251   -0.1402    0.0646 N   0  0  0  0  0  0  0  0  0  0  0  0
   -3.9418   -0.1577    0.1489 N   0  0  0  0  0  0  0  0  0  0  0  0
   -0.7884    1.1121   -0.0044 C   0  0  0  0  0  0  0  0  0  0  0  0
    0.5603    1.1952   -0.1010 C   0  0  0  0  0  0  0  0  0  0  0  0
    1.2964   -0.0227   -0.2408 C   0  0  0  0  0  0  0  0  0  0  0  0
    2.6026    0.1227   -0.3282 O   0  0  0  0  0  0  0  0  0  0  0  0
    3.4770   -1.0198   -0.4703 C   0  0  0  0  0  0  0  0  0  0  0  0
    0.6204   -1.2744   -0.2766 C   0  0  0  0  0  0  0  0  0  0  0  0
   -0.7511   -1.3303   -0.1764 C   0  0  0  0  0  0  0  0  0  0  0  0
   -1.9521    2.8254    0.2024 H   0  0  0  0  0  0  0  0  0  0  0  0
    1.1014    2.1341   -0.0765 H   0  0  0  0  0  0  0  0  0  0  0  0
    4.4809   -0.6023   -0.5113 H   0  0  0  0  0  0  0  0  0  0  0  0
    3.2565   -1.5543   -1.3984 H   0  0  0  0  0  0  0  0  0  0  0  0
    3.3816   -1.6812    0.3951 H   0  0  0  0  0  0  0  0  0  0  0  0
    1.1782   -2.1959   -0.3830 H   0  0  0  0  0  0  0  0  0  0  0  0
   -1.2769   -2.2796   -0.2026 H   0  0  0  0  0  0  0  0  0  0  0  0
  1  4  1  0  0  0  0
  1  2  1  0  0  0  0
  2  3  1  0  0  0  0
  5 12  1  0  0  0  0
  5  4  2  0  0  0  0
  6  5  1  0  0  0  0
  7  6  1  0  0  0  0
  8  7  1  0  0  0  0
  8 15  1  0  0  0  0
  9  6  2  0  0  0  0
  9 10  1  0  0  0  0
 10  1  2  0  0  0  0
 13  8  1  0  0  0  0
 14  8  1  0  0  0  0
 16  9  1  0  0  0  0
 17 10  1  0  0  0  0
M  RAD  4   2   2   3   3   4   2  11   2
M  END
