Coordinates from ORCA-job 4-MeOPhN2+_B3LYPG-6-31G_dp-d09-49-n800
 OpenBabel11261919463D

 17 16  0  0  0  0  0  0  0  0999 V2000
   -1.4831   -0.0955   -0.0352 C   0  0  0  0  0  0  0  0  0  0  0  0
   -2.8339   -0.1271    0.0661 N   0  0  0  0  0  0  0  0  0  0  0  0
   -3.9509   -0.1497    0.1500 N   0  0  0  0  0  0  0  0  0  0  0  0
   -0.8097    1.1450   -0.0005 C   0  0  0  0  0  0  0  0  0  0  0  0
    0.5459    1.2081   -0.0989 C   0  0  0  0  0  0  0  0  0  0  0  0
    1.2816   -0.0065   -0.2383 C   0  0  0  0  0  0  0  0  0  0  0  0
    2.5887    0.1395   -0.3257 O   0  0  0  0  0  0  0  0  0  0  0  0
    3.4621   -1.0028   -0.4681 C   0  0  0  0  0  0  0  0  0  0  0  0
    0.6077   -1.2581   -0.2743 C   0  0  0  0  0  0  0  0  0  0  0  0
   -0.7640   -1.3108   -0.1740 C   0  0  0  0  0  0  0  0  0  0  0  0
   -1.7361    2.5556    0.1675 H   0  0  0  0  0  0  0  0  0  0  0  0
    1.0888    2.1456   -0.0748 H   0  0  0  0  0  0  0  0  0  0  0  0
    4.4664   -0.5864   -0.5093 H   0  0  0  0  0  0  0  0  0  0  0  0
    3.2415   -1.5376   -1.3961 H   0  0  0  0  0  0  0  0  0  0  0  0
    3.3668   -1.6649    0.3970 H   0  0  0  0  0  0  0  0  0  0  0  0
    1.1644   -2.1803   -0.3806 H   0  0  0  0  0  0  0  0  0  0  0  0
   -1.2913   -2.2588   -0.2000 H   0  0  0  0  0  0  0  0  0  0  0  0
  1  4  1  0  0  0  0
  1  2  1  0  0  0  0
  2  3  1  0  0  0  0
  5 12  1  0  0  0  0
  5  4  2  0  0  0  0
  6  5  1  0  0  0  0
  7  6  1  0  0  0  0
  8  7  1  0  0  0  0
  8 15  1  0  0  0  0
  9  6  2  0  0  0  0
  9 10  1  0  0  0  0
 10  1  2  0  0  0  0
 13  8  1  0  0  0  0
 14  8  1  0  0  0  0
 16  9  1  0  0  0  0
 17 10  1  0  0  0  0
M  RAD  4   2   2   3   3   4   2  11   2
M  END
