Coordinates from ORCA-job 4-MeOPhN2+_B3LYPG-6-31G_dp-d09-49-n800
 OpenBabel11261919463D

 17 16  0  0  0  0  0  0  0  0999 V2000
   -1.4625   -0.1351   -0.0395 C   0  0  0  0  0  0  0  0  0  0  0  0
   -2.8132   -0.1563    0.0625 N   0  0  0  0  0  0  0  0  0  0  0  0
   -3.9297   -0.1711    0.1470 N   0  0  0  0  0  0  0  0  0  0  0  0
   -0.7680    1.0841   -0.0081 C   0  0  0  0  0  0  0  0  0  0  0  0
    0.5758    1.1788   -0.1036 C   0  0  0  0  0  0  0  0  0  0  0  0
    1.3133   -0.0414   -0.2435 C   0  0  0  0  0  0  0  0  0  0  0  0
    2.6187    0.1034   -0.3309 O   0  0  0  0  0  0  0  0  0  0  0  0
    3.4938   -1.0394   -0.4729 C   0  0  0  0  0  0  0  0  0  0  0  0
    0.6351   -1.2927   -0.2790 C   0  0  0  0  0  0  0  0  0  0  0  0
   -0.7362   -1.3501   -0.1789 C   0  0  0  0  0  0  0  0  0  0  0  0
   -2.1999    3.1265    0.2428 H   0  0  0  0  0  0  0  0  0  0  0  0
    1.1177    2.1183   -0.0793 H   0  0  0  0  0  0  0  0  0  0  0  0
    4.4974   -0.6215   -0.5138 H   0  0  0  0  0  0  0  0  0  0  0  0
    3.2731   -1.5738   -1.4009 H   0  0  0  0  0  0  0  0  0  0  0  0
    3.3980   -1.7004    0.3928 H   0  0  0  0  0  0  0  0  0  0  0  0
    1.1933   -2.2140   -0.3853 H   0  0  0  0  0  0  0  0  0  0  0  0
   -1.2617   -2.3000   -0.2051 H   0  0  0  0  0  0  0  0  0  0  0  0
  1  4  1  0  0  0  0
  1  2  1  0  0  0  0
  2  3  1  0  0  0  0
  5 12  1  0  0  0  0
  5  4  2  0  0  0  0
  6  5  1  0  0  0  0
  7  6  1  0  0  0  0
  8  7  1  0  0  0  0
  8 15  1  0  0  0  0
  9  6  2  0  0  0  0
  9 10  1  0  0  0  0
 10  1  2  0  0  0  0
 13  8  1  0  0  0  0
 14  8  1  0  0  0  0
 16  9  1  0  0  0  0
 17 10  1  0  0  0  0
M  RAD  4   2   2   3   3   4   2  11   2
M  END
