Coordinates from ORCA-job 4-MeOPhN2+_B3LYPG-6-31G_dp-d09-49-n800
 OpenBabel11261919463D

 17 17  0  0  0  0  0  0  0  0999 V2000
   -1.4875   -0.0811   -0.0338 C   0  0  0  0  0  0  0  0  0  0  0  0
   -2.8391   -0.1181    0.0667 N   0  0  0  0  0  0  0  0  0  0  0  0
   -3.9563   -0.1448    0.1501 N   0  0  0  0  0  0  0  0  0  0  0  0
   -0.8239    1.1693    0.0023 C   0  0  0  0  0  0  0  0  0  0  0  0
    0.5367    1.2157   -0.0974 C   0  0  0  0  0  0  0  0  0  0  0  0
    1.2727    0.0035   -0.2365 C   0  0  0  0  0  0  0  0  0  0  0  0
    2.5802    0.1500   -0.3240 O   0  0  0  0  0  0  0  0  0  0  0  0
    3.4530   -0.9923   -0.4670 C   0  0  0  0  0  0  0  0  0  0  0  0
    0.5998   -1.2477   -0.2726 C   0  0  0  0  0  0  0  0  0  0  0  0
   -0.7721   -1.2972   -0.1722 C   0  0  0  0  0  0  0  0  0  0  0  0
   -1.6020    2.3793    0.1448 H   0  0  0  0  0  0  0  0  0  0  0  0
    1.0818    2.1519   -0.0737 H   0  0  0  0  0  0  0  0  0  0  0  0
    4.4575   -0.5765   -0.5085 H   0  0  0  0  0  0  0  0  0  0  0  0
    3.2321   -1.5270   -1.3950 H   0  0  0  0  0  0  0  0  0  0  0  0
    3.3581   -1.6548    0.3978 H   0  0  0  0  0  0  0  0  0  0  0  0
    1.1552   -2.1708   -0.3787 H   0  0  0  0  0  0  0  0  0  0  0  0
   -1.3013   -2.2440   -0.1980 H   0  0  0  0  0  0  0  0  0  0  0  0
  1  4  1  0  0  0  0
  1  2  1  0  0  0  0
  2  3  1  0  0  0  0
  4 11  1  0  0  0  0
  5 12  1  0  0  0  0
  5  4  2  0  0  0  0
  6  5  1  0  0  0  0
  7  6  1  0  0  0  0
  8  7  1  0  0  0  0
  8 15  1  0  0  0  0
  9  6  2  0  0  0  0
  9 10  1  0  0  0  0
 10  1  2  0  0  0  0
 13  8  1  0  0  0  0
 14  8  1  0  0  0  0
 16  9  1  0  0  0  0
 17 10  1  0  0  0  0
M  RAD  2   2   2   3   3
M  END
