Coordinates from ORCA-job 4-MeOPhN2+_B3LYPG-6-31G_dp-d09-49-n800
 OpenBabel11261919463D

 17 17  0  0  0  0  0  0  0  0999 V2000
   -1.4954   -0.0539   -0.0312 C   0  0  0  0  0  0  0  0  0  0  0  0
   -2.8487   -0.0972    0.0690 N   0  0  0  0  0  0  0  0  0  0  0  0
   -3.9662   -0.1282    0.1520 N   0  0  0  0  0  0  0  0  0  0  0  0
   -0.8466    1.2110    0.0070 C   0  0  0  0  0  0  0  0  0  0  0  0
    0.5207    1.2299   -0.0955 C   0  0  0  0  0  0  0  0  0  0  0  0
    1.2582    0.0214   -0.2347 C   0  0  0  0  0  0  0  0  0  0  0  0
    2.5661    0.1686   -0.3223 O   0  0  0  0  0  0  0  0  0  0  0  0
    3.4382   -0.9737   -0.4644 C   0  0  0  0  0  0  0  0  0  0  0  0
    0.5854   -1.2283   -0.2705 C   0  0  0  0  0  0  0  0  0  0  0  0
   -0.7871   -1.2716   -0.1694 C   0  0  0  0  0  0  0  0  0  0  0  0
   -1.3702    2.0456    0.1052 H   0  0  0  0  0  0  0  0  0  0  0  0
    1.0690    2.1650   -0.0720 H   0  0  0  0  0  0  0  0  0  0  0  0
    4.4431   -0.5588   -0.5059 H   0  0  0  0  0  0  0  0  0  0  0  0
    3.2174   -1.5092   -1.3921 H   0  0  0  0  0  0  0  0  0  0  0  0
    3.3429   -1.6359    0.4007 H   0  0  0  0  0  0  0  0  0  0  0  0
    1.1379   -2.1531   -0.3767 H   0  0  0  0  0  0  0  0  0  0  0  0
   -1.3199   -2.2161   -0.1948 H   0  0  0  0  0  0  0  0  0  0  0  0
  1  4  1  0  0  0  0
  1  2  1  0  0  0  0
  2  3  1  0  0  0  0
  4 11  1  0  0  0  0
  5 12  1  0  0  0  0
  5  4  2  0  0  0  0
  6  5  1  0  0  0  0
  7  6  1  0  0  0  0
  8  7  1  0  0  0  0
  8 15  1  0  0  0  0
  9  6  2  0  0  0  0
  9 10  1  0  0  0  0
 10  1  2  0  0  0  0
 13  8  1  0  0  0  0
 14  8  1  0  0  0  0
 16  9  1  0  0  0  0
 17 10  1  0  0  0  0
M  RAD  2   2   2   3   3
M  END
