Coordinates from ORCA-job 4-MeOPhN2+_B3LYPG-6-31G_dp-d09-49-n800
 OpenBabel11261919463D

 17 16  0  0  0  0  0  0  0  0999 V2000
   -1.4534   -0.1460   -0.0410 C   0  0  0  0  0  0  0  0  0  0  0  0
   -2.8046   -0.1673    0.0610 N   0  0  0  0  0  0  0  0  0  0  0  0
   -3.9210   -0.1824    0.1454 N   0  0  0  0  0  0  0  0  0  0  0  0
   -0.7567    1.0705   -0.0101 C   0  0  0  0  0  0  0  0  0  0  0  0
    0.5854    1.1678   -0.1052 C   0  0  0  0  0  0  0  0  0  0  0  0
    1.3238   -0.0532   -0.2451 C   0  0  0  0  0  0  0  0  0  0  0  0
    2.6289    0.0910   -0.3325 O   0  0  0  0  0  0  0  0  0  0  0  0
    3.5041   -1.0521   -0.4745 C   0  0  0  0  0  0  0  0  0  0  0  0
    0.6445   -1.3043   -0.2804 C   0  0  0  0  0  0  0  0  0  0  0  0
   -0.7265   -1.3617   -0.1804 C   0  0  0  0  0  0  0  0  0  0  0  0
   -2.3575    3.3167    0.2684 H   0  0  0  0  0  0  0  0  0  0  0  0
    1.1291    2.1071   -0.0812 H   0  0  0  0  0  0  0  0  0  0  0  0
    4.5077   -0.6341   -0.5154 H   0  0  0  0  0  0  0  0  0  0  0  0
    3.2831   -1.5862   -1.4025 H   0  0  0  0  0  0  0  0  0  0  0  0
    3.4080   -1.7129    0.3912 H   0  0  0  0  0  0  0  0  0  0  0  0
    1.2027   -2.2256   -0.3867 H   0  0  0  0  0  0  0  0  0  0  0  0
   -1.2524   -2.3117   -0.2066 H   0  0  0  0  0  0  0  0  0  0  0  0
  1  4  1  0  0  0  0
  1  2  1  0  0  0  0
  2  3  1  0  0  0  0
  5 12  1  0  0  0  0
  5  4  2  0  0  0  0
  6  5  1  0  0  0  0
  7  6  1  0  0  0  0
  8  7  1  0  0  0  0
  8 15  1  0  0  0  0
  9  6  2  0  0  0  0
  9 10  1  0  0  0  0
 10  1  2  0  0  0  0
 13  8  1  0  0  0  0
 14  8  1  0  0  0  0
 16  9  1  0  0  0  0
 17 10  1  0  0  0  0
M  RAD  4   2   2   3   3   4   2  11   2
M  END
