Coordinates from ORCA-job 4-MeOPhN2+_B3LYPG-6-31G_dp-d09-49-n800
 OpenBabel11261919463D

 17 16  0  0  0  0  0  0  0  0999 V2000
   -1.4453   -0.1576   -0.0424 C   0  0  0  0  0  0  0  0  0  0  0  0
   -2.7971   -0.1806    0.0596 N   0  0  0  0  0  0  0  0  0  0  0  0
   -3.9136   -0.1974    0.1434 N   0  0  0  0  0  0  0  0  0  0  0  0
   -0.7494    1.0586   -0.0115 C   0  0  0  0  0  0  0  0  0  0  0  0
    0.5922    1.1566   -0.1065 C   0  0  0  0  0  0  0  0  0  0  0  0
    1.3321   -0.0642   -0.2464 C   0  0  0  0  0  0  0  0  0  0  0  0
    2.6371    0.0804   -0.3338 O   0  0  0  0  0  0  0  0  0  0  0  0
    3.5129   -1.0623   -0.4759 C   0  0  0  0  0  0  0  0  0  0  0  0
    0.6529   -1.3155   -0.2817 C   0  0  0  0  0  0  0  0  0  0  0  0
   -0.7179   -1.3735   -0.1818 C   0  0  0  0  0  0  0  0  0  0  0  0
   -2.4896    3.4991    0.2912 H   0  0  0  0  0  0  0  0  0  0  0  0
    1.1371    2.0957   -0.0827 H   0  0  0  0  0  0  0  0  0  0  0  0
    4.5163   -0.6438   -0.5168 H   0  0  0  0  0  0  0  0  0  0  0  0
    3.2920   -1.5964   -1.4040 H   0  0  0  0  0  0  0  0  0  0  0  0
    3.4171   -1.7231    0.3898 H   0  0  0  0  0  0  0  0  0  0  0  0
    1.2117   -2.2366   -0.3880 H   0  0  0  0  0  0  0  0  0  0  0  0
   -1.2435   -2.3238   -0.2079 H   0  0  0  0  0  0  0  0  0  0  0  0
  1  4  1  0  0  0  0
  1  2  1  0  0  0  0
  2  3  1  0  0  0  0
  5 12  1  0  0  0  0
  5  4  2  0  0  0  0
  6  5  1  0  0  0  0
  7  6  1  0  0  0  0
  8  7  1  0  0  0  0
  8 15  1  0  0  0  0
  9  6  2  0  0  0  0
  9 10  1  0  0  0  0
 10  1  2  0  0  0  0
 13  8  1  0  0  0  0
 14  8  1  0  0  0  0
 16  9  1  0  0  0  0
 17 10  1  0  0  0  0
M  RAD  4   2   2   3   3   4   2  11   2
M  END
