Coordinates from ORCA-job 4-MeOPhN2+_B3LYPG-6-31G_dp-d09-49-n800
 OpenBabel11261919463D

 17 16  0  0  0  0  0  0  0  0999 V2000
   -1.4825   -0.0975   -0.0354 C   0  0  0  0  0  0  0  0  0  0  0  0
   -2.8331   -0.1283    0.0659 N   0  0  0  0  0  0  0  0  0  0  0  0
   -3.9501   -0.1504    0.1500 N   0  0  0  0  0  0  0  0  0  0  0  0
   -0.8077    1.1417   -0.0009 C   0  0  0  0  0  0  0  0  0  0  0  0
    0.5473    1.2070   -0.0991 C   0  0  0  0  0  0  0  0  0  0  0  0
    1.2829   -0.0079   -0.2385 C   0  0  0  0  0  0  0  0  0  0  0  0
    2.5899    0.1380   -0.3260 O   0  0  0  0  0  0  0  0  0  0  0  0
    3.4634   -1.0043   -0.4683 C   0  0  0  0  0  0  0  0  0  0  0  0
    0.6089   -1.2596   -0.2746 C   0  0  0  0  0  0  0  0  0  0  0  0
   -0.7628   -1.3126   -0.1743 C   0  0  0  0  0  0  0  0  0  0  0  0
   -1.7553    2.5802    0.1706 H   0  0  0  0  0  0  0  0  0  0  0  0
    1.0898    2.1447   -0.0750 H   0  0  0  0  0  0  0  0  0  0  0  0
    4.4676   -0.5878   -0.5094 H   0  0  0  0  0  0  0  0  0  0  0  0
    3.2429   -1.5391   -1.3963 H   0  0  0  0  0  0  0  0  0  0  0  0
    3.3681   -1.6663    0.3968 H   0  0  0  0  0  0  0  0  0  0  0  0
    1.1657   -2.1817   -0.3809 H   0  0  0  0  0  0  0  0  0  0  0  0
   -1.2900   -2.2608   -0.2002 H   0  0  0  0  0  0  0  0  0  0  0  0
  1  4  1  0  0  0  0
  1  2  1  0  0  0  0
  2  3  1  0  0  0  0
  5 12  1  0  0  0  0
  5  4  2  0  0  0  0
  6  5  1  0  0  0  0
  7  6  1  0  0  0  0
  8  7  1  0  0  0  0
  8 15  1  0  0  0  0
  9  6  2  0  0  0  0
  9 10  1  0  0  0  0
 10  1  2  0  0  0  0
 13  8  1  0  0  0  0
 14  8  1  0  0  0  0
 16  9  1  0  0  0  0
 17 10  1  0  0  0  0
M  RAD  4   2   2   3   3   4   2  11   2
M  END
