Coordinates from ORCA-job 4-MeOPhN2+_B3LYPG-6-31G_dp-d09-49-n800
 OpenBabel11261919463D

 17 16  0  0  0  0  0  0  0  0999 V2000
   -1.4212   -0.2367   -0.0492 C   0  0  0  0  0  0  0  0  0  0  0  0
   -2.7751   -0.2828    0.0514 N   0  0  0  0  0  0  0  0  0  0  0  0
   -3.8915   -0.3188    0.1345 N   0  0  0  0  0  0  0  0  0  0  0  0
   -0.7488    0.9919   -0.0148 C   0  0  0  0  0  0  0  0  0  0  0  0
    0.5931    1.0977   -0.1093 C   0  0  0  0  0  0  0  0  0  0  0  0
    1.3508   -0.1122   -0.2505 C   0  0  0  0  0  0  0  0  0  0  0  0
    2.6549    0.0480   -0.3367 O   0  0  0  0  0  0  0  0  0  0  0  0
    3.5432   -1.0841   -0.4801 C   0  0  0  0  0  0  0  0  0  0  0  0
    0.6876   -1.3723   -0.2884 C   0  0  0  0  0  0  0  0  0  0  0  0
   -0.6818   -1.4463   -0.1897 C   0  0  0  0  0  0  0  0  0  0  0  0
   -2.8869    4.4017    0.3796 H   0  0  0  0  0  0  0  0  0  0  0  0
    1.1339    2.0408   -0.0846 H   0  0  0  0  0  0  0  0  0  0  0  0
    4.5421   -0.6550   -0.5197 H   0  0  0  0  0  0  0  0  0  0  0  0
    3.3293   -1.6196   -1.4091 H   0  0  0  0  0  0  0  0  0  0  0  0
    3.4546   -1.7481    0.3841 H   0  0  0  0  0  0  0  0  0  0  0  0
    1.2582   -2.2861   -0.3954 H   0  0  0  0  0  0  0  0  0  0  0  0
   -1.1973   -2.4026   -0.2176 H   0  0  0  0  0  0  0  0  0  0  0  0
  1  4  1  0  0  0  0
  1  2  1  0  0  0  0
  2  3  1  0  0  0  0
  5 12  1  0  0  0  0
  5  4  2  0  0  0  0
  6  5  1  0  0  0  0
  7  6  1  0  0  0  0
  8  7  1  0  0  0  0
  8 15  1  0  0  0  0
  9  6  2  0  0  0  0
  9 10  1  0  0  0  0
 10  1  2  0  0  0  0
 13  8  1  0  0  0  0
 14  8  1  0  0  0  0
 16  9  1  0  0  0  0
 17 10  1  0  0  0  0
M  RAD  4   2   2   3   3   4   2  11   2
M  END
