Coordinates from ORCA-job 4-MeOPhN2+_B3LYPG-6-31G_dp-d09-49-n800
 OpenBabel11261919463D

 17 16  0  0  0  0  0  0  0  0999 V2000
   -1.4224   -0.2936   -0.0527 C   0  0  0  0  0  0  0  0  0  0  0  0
   -2.7762   -0.3589    0.0466 N   0  0  0  0  0  0  0  0  0  0  0  0
   -3.8922   -0.4094    0.1285 N   0  0  0  0  0  0  0  0  0  0  0  0
   -0.7699    0.9457   -0.0157 C   0  0  0  0  0  0  0  0  0  0  0  0
    0.5716    1.0668   -0.1091 C   0  0  0  0  0  0  0  0  0  0  0  0
    1.3460   -0.1319   -0.2511 C   0  0  0  0  0  0  0  0  0  0  0  0
    2.6485    0.0456   -0.3360 O   0  0  0  0  0  0  0  0  0  0  0  0
    3.5511   -1.0745   -0.4804 C   0  0  0  0  0  0  0  0  0  0  0  0
    0.7004   -1.4011   -0.2913 C   0  0  0  0  0  0  0  0  0  0  0  0
   -0.6679   -1.4937   -0.1941 C   0  0  0  0  0  0  0  0  0  0  0  0
   -2.9185    4.8530    0.4112 H   0  0  0  0  0  0  0  0  0  0  0  0
    1.1013    2.0164   -0.0828 H   0  0  0  0  0  0  0  0  0  0  0  0
    4.5446   -0.6328   -0.5185 H   0  0  0  0  0  0  0  0  0  0  0  0
    3.3450   -1.6116   -1.4102 H   0  0  0  0  0  0  0  0  0  0  0  0
    3.4706   -1.7410    0.3827 H   0  0  0  0  0  0  0  0  0  0  0  0
    1.2836   -2.3068   -0.3989 H   0  0  0  0  0  0  0  0  0  0  0  0
   -1.1705   -2.4569   -0.2236 H   0  0  0  0  0  0  0  0  0  0  0  0
  1  4  1  0  0  0  0
  1  2  1  0  0  0  0
  2  3  1  0  0  0  0
  5 12  1  0  0  0  0
  5  4  2  0  0  0  0
  6  5  1  0  0  0  0
  7  6  1  0  0  0  0
  8  7  1  0  0  0  0
  8 15  1  0  0  0  0
  9  6  2  0  0  0  0
  9 10  1  0  0  0  0
 10  1  2  0  0  0  0
 13  8  1  0  0  0  0
 14  8  1  0  0  0  0
 16  9  1  0  0  0  0
 17 10  1  0  0  0  0
M  RAD  4   2   2   3   3   4   2  11   2
M  END
