Coordinates from ORCA-job 4-MeOPhN2+_B3LYPG-6-31G_dp-d09-49-n800
 OpenBabel11261919463D

 17 16  0  0  0  0  0  0  0  0999 V2000
   -1.4261   -0.3380   -0.0557 C   0  0  0  0  0  0  0  0  0  0  0  0
   -2.7796   -0.4188    0.0423 N   0  0  0  0  0  0  0  0  0  0  0  0
   -3.8950   -0.4813    0.1232 N   0  0  0  0  0  0  0  0  0  0  0  0
   -0.7895    0.9095   -0.0172 C   0  0  0  0  0  0  0  0  0  0  0  0
    0.5511    1.0444   -0.1095 C   0  0  0  0  0  0  0  0  0  0  0  0
    1.3393   -0.1450   -0.2516 C   0  0  0  0  0  0  0  0  0  0  0  0
    2.6402    0.0474   -0.3355 O   0  0  0  0  0  0  0  0  0  0  0  0
    3.5550   -1.0625   -0.4798 C   0  0  0  0  0  0  0  0  0  0  0  0
    0.7086   -1.4215   -0.2931 C   0  0  0  0  0  0  0  0  0  0  0  0
   -0.6586   -1.5298   -0.1970 C   0  0  0  0  0  0  0  0  0  0  0  0
   -2.9038    5.1726    0.4331 H   0  0  0  0  0  0  0  0  0  0  0  0
    1.0707    1.9997   -0.0822 H   0  0  0  0  0  0  0  0  0  0  0  0
    4.5437   -0.6101   -0.5171 H   0  0  0  0  0  0  0  0  0  0  0  0
    3.3556   -1.6015   -1.4101 H   0  0  0  0  0  0  0  0  0  0  0  0
    3.4814   -1.7306    0.3827 H   0  0  0  0  0  0  0  0  0  0  0  0
    1.3023   -2.3204   -0.4005 H   0  0  0  0  0  0  0  0  0  0  0  0
   -1.1502   -2.4986   -0.2275 H   0  0  0  0  0  0  0  0  0  0  0  0
  1  4  1  0  0  0  0
  1  2  1  0  0  0  0
  2  3  1  0  0  0  0
  5 12  1  0  0  0  0
  5  4  2  0  0  0  0
  6  5  1  0  0  0  0
  7  6  1  0  0  0  0
  8  7  1  0  0  0  0
  8 15  1  0  0  0  0
  9  6  2  0  0  0  0
  9 10  1  0  0  0  0
 10  1  2  0  0  0  0
 13  8  1  0  0  0  0
 14  8  1  0  0  0  0
 16  9  1  0  0  0  0
 17 10  1  0  0  0  0
M  RAD  4   2   2   3   3   4   2  11   2
M  END
