Coordinates from ORCA-job 4-MeOPhN2+_B3LYPG-6-31G_dp-d09-49-n800
 OpenBabel11261919463D

 17 16  0  0  0  0  0  0  0  0999 V2000
   -1.4325   -0.1802   -0.0447 C   0  0  0  0  0  0  0  0  0  0  0  0
   -2.7853   -0.2088    0.0569 N   0  0  0  0  0  0  0  0  0  0  0  0
   -3.9019   -0.2308    0.1409 N   0  0  0  0  0  0  0  0  0  0  0  0
   -0.7414    1.0381   -0.0129 C   0  0  0  0  0  0  0  0  0  0  0  0
    0.6000    1.1362   -0.1079 C   0  0  0  0  0  0  0  0  0  0  0  0
    1.3437   -0.0827   -0.2482 C   0  0  0  0  0  0  0  0  0  0  0  0
    2.6487    0.0642   -0.3354 O   0  0  0  0  0  0  0  0  0  0  0  0
    3.5263   -1.0768   -0.4781 C   0  0  0  0  0  0  0  0  0  0  0  0
    0.6669   -1.3355   -0.2842 C   0  0  0  0  0  0  0  0  0  0  0  0
   -0.7035   -1.3958   -0.1845 C   0  0  0  0  0  0  0  0  0  0  0  0
   -2.6891    3.8203    0.3267 H   0  0  0  0  0  0  0  0  0  0  0  0
    1.1462    2.0754   -0.0841 H   0  0  0  0  0  0  0  0  0  0  0  0
    4.5291   -0.6568   -0.5188 H   0  0  0  0  0  0  0  0  0  0  0  0
    3.3065   -1.6109   -1.4065 H   0  0  0  0  0  0  0  0  0  0  0  0
    3.4316   -1.7384    0.3872 H   0  0  0  0  0  0  0  0  0  0  0  0
    1.2276   -2.2553   -0.3907 H   0  0  0  0  0  0  0  0  0  0  0  0
   -1.2278   -2.3471   -0.2110 H   0  0  0  0  0  0  0  0  0  0  0  0
  1  4  1  0  0  0  0
  1  2  1  0  0  0  0
  2  3  1  0  0  0  0
  5 12  1  0  0  0  0
  5  4  2  0  0  0  0
  6  5  1  0  0  0  0
  7  6  1  0  0  0  0
  8  7  1  0  0  0  0
  8 15  1  0  0  0  0
  9  6  2  0  0  0  0
  9 10  1  0  0  0  0
 10  1  2  0  0  0  0
 13  8  1  0  0  0  0
 14  8  1  0  0  0  0
 16  9  1  0  0  0  0
 17 10  1  0  0  0  0
M  RAD  4   2   2   3   3   4   2  11   2
M  END
