Coordinates from ORCA-job 4-MeOPhN2+_B3LYPG-6-31G_dp-d09-49-n800
 OpenBabel11261919463D

 17 16  0  0  0  0  0  0  0  0999 V2000
   -1.4215   -0.2780   -0.0517 C   0  0  0  0  0  0  0  0  0  0  0  0
   -2.7753   -0.3380    0.0479 N   0  0  0  0  0  0  0  0  0  0  0  0
   -3.8915   -0.3844    0.1302 N   0  0  0  0  0  0  0  0  0  0  0  0
   -0.7635    0.9584   -0.0154 C   0  0  0  0  0  0  0  0  0  0  0  0
    0.5781    1.0747   -0.1091 C   0  0  0  0  0  0  0  0  0  0  0  0
    1.3478   -0.1271   -0.2510 C   0  0  0  0  0  0  0  0  0  0  0  0
    2.6509    0.0455   -0.3362 O   0  0  0  0  0  0  0  0  0  0  0  0
    3.5494   -1.0780   -0.4804 C   0  0  0  0  0  0  0  0  0  0  0  0
    0.6973   -1.3937   -0.2906 C   0  0  0  0  0  0  0  0  0  0  0  0
   -0.6714   -1.4809   -0.1930 C   0  0  0  0  0  0  0  0  0  0  0  0
   -2.9180    4.7365    0.4033 H   0  0  0  0  0  0  0  0  0  0  0  0
    1.1112    2.0225   -0.0832 H   0  0  0  0  0  0  0  0  0  0  0  0
    4.5445   -0.6398   -0.5190 H   0  0  0  0  0  0  0  0  0  0  0  0
    3.3411   -1.6146   -1.4101 H   0  0  0  0  0  0  0  0  0  0  0  0
    3.4666   -1.7439    0.3829 H   0  0  0  0  0  0  0  0  0  0  0  0
    1.2769   -2.3017   -0.3981 H   0  0  0  0  0  0  0  0  0  0  0  0
   -1.1777   -2.4421   -0.2221 H   0  0  0  0  0  0  0  0  0  0  0  0
  1  4  1  0  0  0  0
  1  2  1  0  0  0  0
  2  3  1  0  0  0  0
  5 12  1  0  0  0  0
  5  4  2  0  0  0  0
  6  5  1  0  0  0  0
  7  6  1  0  0  0  0
  8  7  1  0  0  0  0
  8 15  1  0  0  0  0
  9  6  2  0  0  0  0
  9 10  1  0  0  0  0
 10  1  2  0  0  0  0
 13  8  1  0  0  0  0
 14  8  1  0  0  0  0
 16  9  1  0  0  0  0
 17 10  1  0  0  0  0
M  RAD  4   2   2   3   3   4   2  11   2
M  END
