Coordinates from ORCA-job 4-MeOPhN2+_B3LYPG-6-31G_dp-d09-49-n800
 OpenBabel11261919463D

 17 16  0  0  0  0  0  0  0  0999 V2000
   -1.4781   -0.1086   -0.0364 C   0  0  0  0  0  0  0  0  0  0  0  0
   -2.8285   -0.1354    0.0652 N   0  0  0  0  0  0  0  0  0  0  0  0
   -3.9453   -0.1545    0.1494 N   0  0  0  0  0  0  0  0  0  0  0  0
   -0.7959    1.1232   -0.0030 C   0  0  0  0  0  0  0  0  0  0  0  0
    0.5551    1.2001   -0.1002 C   0  0  0  0  0  0  0  0  0  0  0  0
    1.2909   -0.0167   -0.2399 C   0  0  0  0  0  0  0  0  0  0  0  0
    2.5974    0.1289   -0.3273 O   0  0  0  0  0  0  0  0  0  0  0  0
    3.4715   -1.0135   -0.4695 C   0  0  0  0  0  0  0  0  0  0  0  0
    0.6157   -1.2684   -0.2758 C   0  0  0  0  0  0  0  0  0  0  0  0
   -0.7559   -1.3234   -0.1756 C   0  0  0  0  0  0  0  0  0  0  0  0
   -1.8724    2.7272    0.1895 H   0  0  0  0  0  0  0  0  0  0  0  0
    1.0965    2.1386   -0.0758 H   0  0  0  0  0  0  0  0  0  0  0  0
    4.4755   -0.5964   -0.5105 H   0  0  0  0  0  0  0  0  0  0  0  0
    3.2510   -1.5481   -1.3975 H   0  0  0  0  0  0  0  0  0  0  0  0
    3.3761   -1.6752    0.3958 H   0  0  0  0  0  0  0  0  0  0  0  0
    1.1733   -2.1901   -0.3821 H   0  0  0  0  0  0  0  0  0  0  0  0
   -1.2820   -2.2723   -0.2017 H   0  0  0  0  0  0  0  0  0  0  0  0
  1  4  1  0  0  0  0
  1  2  1  0  0  0  0
  2  3  1  0  0  0  0
  5 12  1  0  0  0  0
  5  4  2  0  0  0  0
  6  5  1  0  0  0  0
  7  6  1  0  0  0  0
  8  7  1  0  0  0  0
  8 15  1  0  0  0  0
  9  6  2  0  0  0  0
  9 10  1  0  0  0  0
 10  1  2  0  0  0  0
 13  8  1  0  0  0  0
 14  8  1  0  0  0  0
 16  9  1  0  0  0  0
 17 10  1  0  0  0  0
M  RAD  4   2   2   3   3   4   2  11   2
M  END
