Coordinates from ORCA-job 4-MeOPhN2+_B3LYPG-6-31G_dp-d09-49-n800
 OpenBabel11261919463D

 17 16  0  0  0  0  0  0  0  0999 V2000
   -1.4230   -0.2161   -0.0476 C   0  0  0  0  0  0  0  0  0  0  0  0
   -2.7766   -0.2556    0.0535 N   0  0  0  0  0  0  0  0  0  0  0  0
   -3.8932   -0.2864    0.1370 N   0  0  0  0  0  0  0  0  0  0  0  0
   -0.7432    1.0083   -0.0141 C   0  0  0  0  0  0  0  0  0  0  0  0
    0.5984    1.1103   -0.1088 C   0  0  0  0  0  0  0  0  0  0  0  0
    1.3505   -0.1033   -0.2499 C   0  0  0  0  0  0  0  0  0  0  0  0
    2.6551    0.0513   -0.3365 O   0  0  0  0  0  0  0  0  0  0  0  0
    3.5387   -1.0846   -0.4798 C   0  0  0  0  0  0  0  0  0  0  0  0
    0.6816   -1.3604   -0.2872 C   0  0  0  0  0  0  0  0  0  0  0  0
   -0.6882   -1.4285   -0.1881 C   0  0  0  0  0  0  0  0  0  0  0  0
   -2.8469    4.2150    0.3637 H   0  0  0  0  0  0  0  0  0  0  0  0
    1.1421    2.0516   -0.0844 H   0  0  0  0  0  0  0  0  0  0  0  0
    4.5394   -0.6595   -0.5198 H   0  0  0  0  0  0  0  0  0  0  0  0
    3.3223   -1.6194   -1.4086 H   0  0  0  0  0  0  0  0  0  0  0  0
    3.4475   -1.7478    0.3848 H   0  0  0  0  0  0  0  0  0  0  0  0
    1.2480   -2.2767   -0.3941 H   0  0  0  0  0  0  0  0  0  0  0  0
   -1.2075   -2.3827   -0.2155 H   0  0  0  0  0  0  0  0  0  0  0  0
  1  4  1  0  0  0  0
  1  2  1  0  0  0  0
  2  3  1  0  0  0  0
  5 12  1  0  0  0  0
  5  4  2  0  0  0  0
  6  5  1  0  0  0  0
  7  6  1  0  0  0  0
  8  7  1  0  0  0  0
  8 15  1  0  0  0  0
  9  6  2  0  0  0  0
  9 10  1  0  0  0  0
 10  1  2  0  0  0  0
 13  8  1  0  0  0  0
 14  8  1  0  0  0  0
 16  9  1  0  0  0  0
 17 10  1  0  0  0  0
M  RAD  4   2   2   3   3   4   2  11   2
M  END
