Coordinates from ORCA-job 4-MeOPhN2+_B3LYPG-6-31G_dp-d09-49-n800
 OpenBabel11261919463D

 17 16  0  0  0  0  0  0  0  0999 V2000
   -1.4212   -0.2379   -0.0490 C   0  0  0  0  0  0  0  0  0  0  0  0
   -2.7750   -0.2844    0.0519 N   0  0  0  0  0  0  0  0  0  0  0  0
   -3.8916   -0.3204    0.1330 N   0  0  0  0  0  0  0  0  0  0  0  0
   -0.7491    0.9909   -0.0147 C   0  0  0  0  0  0  0  0  0  0  0  0
    0.5928    1.0971   -0.1093 C   0  0  0  0  0  0  0  0  0  0  0  0
    1.3508   -0.1126   -0.2505 C   0  0  0  0  0  0  0  0  0  0  0  0
    2.6549    0.0478   -0.3368 O   0  0  0  0  0  0  0  0  0  0  0  0
    3.5434   -1.0841   -0.4803 C   0  0  0  0  0  0  0  0  0  0  0  0
    0.6879   -1.3729   -0.2883 C   0  0  0  0  0  0  0  0  0  0  0  0
   -0.6815   -1.4473   -0.1896 C   0  0  0  0  0  0  0  0  0  0  0  0
   -2.8887    4.4115    0.3806 H   0  0  0  0  0  0  0  0  0  0  0  0
    1.1334    2.0404   -0.0846 H   0  0  0  0  0  0  0  0  0  0  0  0
    4.5423   -0.6548   -0.5199 H   0  0  0  0  0  0  0  0  0  0  0  0
    3.3295   -1.6197   -1.4092 H   0  0  0  0  0  0  0  0  0  0  0  0
    3.4550   -1.7481    0.3840 H   0  0  0  0  0  0  0  0  0  0  0  0
    1.2587   -2.2865   -0.3954 H   0  0  0  0  0  0  0  0  0  0  0  0
   -1.1966   -2.4038   -0.2174 H   0  0  0  0  0  0  0  0  0  0  0  0
  1  4  1  0  0  0  0
  1  2  1  0  0  0  0
  2  3  1  0  0  0  0
  5 12  1  0  0  0  0
  5  4  2  0  0  0  0
  6  5  1  0  0  0  0
  7  6  1  0  0  0  0
  8  7  1  0  0  0  0
  8 15  1  0  0  0  0
  9  6  2  0  0  0  0
  9 10  1  0  0  0  0
 10  1  2  0  0  0  0
 13  8  1  0  0  0  0
 14  8  1  0  0  0  0
 16  9  1  0  0  0  0
 17 10  1  0  0  0  0
M  RAD  4   2   2   3   3   4   2  11   2
M  END
