Coordinates from ORCA-job 4-MeOPhN2+_B3LYPG-6-31G_dp-d09-49-n800
 OpenBabel11261919463D

 17 16  0  0  0  0  0  0  0  0999 V2000
   -1.4260   -0.3372   -0.0557 C   0  0  0  0  0  0  0  0  0  0  0  0
   -2.7795   -0.4179    0.0423 N   0  0  0  0  0  0  0  0  0  0  0  0
   -3.8949   -0.4803    0.1236 N   0  0  0  0  0  0  0  0  0  0  0  0
   -0.7893    0.9102   -0.0172 C   0  0  0  0  0  0  0  0  0  0  0  0
    0.5514    1.0446   -0.1095 C   0  0  0  0  0  0  0  0  0  0  0  0
    1.3394   -0.1448   -0.2517 C   0  0  0  0  0  0  0  0  0  0  0  0
    2.6403    0.0473   -0.3355 O   0  0  0  0  0  0  0  0  0  0  0  0
    3.5549   -1.0626   -0.4798 C   0  0  0  0  0  0  0  0  0  0  0  0
    0.7085   -1.4213   -0.2931 C   0  0  0  0  0  0  0  0  0  0  0  0
   -0.6588   -1.5292   -0.1971 C   0  0  0  0  0  0  0  0  0  0  0  0
   -2.9039    5.1675    0.4327 H   0  0  0  0  0  0  0  0  0  0  0  0
    1.0712    1.9998   -0.0822 H   0  0  0  0  0  0  0  0  0  0  0  0
    4.5437   -0.6103   -0.5171 H   0  0  0  0  0  0  0  0  0  0  0  0
    3.3555   -1.6016   -1.4101 H   0  0  0  0  0  0  0  0  0  0  0  0
    3.4813   -1.7307    0.3827 H   0  0  0  0  0  0  0  0  0  0  0  0
    1.3020   -2.3202   -0.4005 H   0  0  0  0  0  0  0  0  0  0  0  0
   -1.1507   -2.4979   -0.2275 H   0  0  0  0  0  0  0  0  0  0  0  0
  1  4  1  0  0  0  0
  1  2  1  0  0  0  0
  2  3  1  0  0  0  0
  5 12  1  0  0  0  0
  5  4  2  0  0  0  0
  6  5  1  0  0  0  0
  7  6  1  0  0  0  0
  8  7  1  0  0  0  0
  8 15  1  0  0  0  0
  9  6  2  0  0  0  0
  9 10  1  0  0  0  0
 10  1  2  0  0  0  0
 13  8  1  0  0  0  0
 14  8  1  0  0  0  0
 16  9  1  0  0  0  0
 17 10  1  0  0  0  0
M  RAD  4   2   2   3   3   4   2  11   2
M  END
