Coordinates from ORCA-job 4-MeOPhN2+_B3LYPG-6-31G_dp-d09-49-n800
 OpenBabel11261919463D

 17 16  0  0  0  0  0  0  0  0999 V2000
   -1.4789   -0.1068   -0.0363 C   0  0  0  0  0  0  0  0  0  0  0  0
   -2.8293   -0.1342    0.0653 N   0  0  0  0  0  0  0  0  0  0  0  0
   -3.9461   -0.1538    0.1495 N   0  0  0  0  0  0  0  0  0  0  0  0
   -0.7978    1.1262   -0.0027 C   0  0  0  0  0  0  0  0  0  0  0  0
    0.5538    1.2013   -0.1000 C   0  0  0  0  0  0  0  0  0  0  0  0
    1.2896   -0.0152   -0.2396 C   0  0  0  0  0  0  0  0  0  0  0  0
    2.5961    0.1305   -0.3271 O   0  0  0  0  0  0  0  0  0  0  0  0
    3.4701   -1.0120   -0.4693 C   0  0  0  0  0  0  0  0  0  0  0  0
    0.6146   -1.2669   -0.2756 C   0  0  0  0  0  0  0  0  0  0  0  0
   -0.7570   -1.3216   -0.1753 C   0  0  0  0  0  0  0  0  0  0  0  0
   -1.8527    2.7027    0.1863 H   0  0  0  0  0  0  0  0  0  0  0  0
    1.0953    2.1397   -0.0757 H   0  0  0  0  0  0  0  0  0  0  0  0
    4.4742   -0.5950   -0.5103 H   0  0  0  0  0  0  0  0  0  0  0  0
    3.2497   -1.5466   -1.3973 H   0  0  0  0  0  0  0  0  0  0  0  0
    3.3748   -1.6737    0.3959 H   0  0  0  0  0  0  0  0  0  0  0  0
    1.1720   -2.1887   -0.3819 H   0  0  0  0  0  0  0  0  0  0  0  0
   -1.2833   -2.2704   -0.2014 H   0  0  0  0  0  0  0  0  0  0  0  0
  1  4  1  0  0  0  0
  1  2  1  0  0  0  0
  2  3  1  0  0  0  0
  5 12  1  0  0  0  0
  5  4  2  0  0  0  0
  6  5  1  0  0  0  0
  7  6  1  0  0  0  0
  8  7  1  0  0  0  0
  8 15  1  0  0  0  0
  9  6  2  0  0  0  0
  9 10  1  0  0  0  0
 10  1  2  0  0  0  0
 13  8  1  0  0  0  0
 14  8  1  0  0  0  0
 16  9  1  0  0  0  0
 17 10  1  0  0  0  0
M  RAD  4   2   2   3   3   4   2  11   2
M  END
