Coordinates from ORCA-job 4-MeOPhN2+_B3LYPG-6-31G_dp-d09-49-n800
 OpenBabel11261919463D

 17 17  0  0  0  0  0  0  0  0999 V2000
   -1.4874   -0.0814   -0.0339 C   0  0  0  0  0  0  0  0  0  0  0  0
   -2.8390   -0.1183    0.0667 N   0  0  0  0  0  0  0  0  0  0  0  0
   -3.9562   -0.1449    0.1501 N   0  0  0  0  0  0  0  0  0  0  0  0
   -0.8236    1.1688    0.0022 C   0  0  0  0  0  0  0  0  0  0  0  0
    0.5369    1.2155   -0.0974 C   0  0  0  0  0  0  0  0  0  0  0  0
    1.2729    0.0033   -0.2365 C   0  0  0  0  0  0  0  0  0  0  0  0
    2.5804    0.1498   -0.3240 O   0  0  0  0  0  0  0  0  0  0  0  0
    3.4532   -0.9925   -0.4670 C   0  0  0  0  0  0  0  0  0  0  0  0
    0.5999   -1.2479   -0.2726 C   0  0  0  0  0  0  0  0  0  0  0  0
   -0.7720   -1.2975   -0.1722 C   0  0  0  0  0  0  0  0  0  0  0  0
   -1.6046    2.3829    0.1453 H   0  0  0  0  0  0  0  0  0  0  0  0
    1.0820    2.1517   -0.0737 H   0  0  0  0  0  0  0  0  0  0  0  0
    4.4577   -0.5767   -0.5085 H   0  0  0  0  0  0  0  0  0  0  0  0
    3.2323   -1.5272   -1.3950 H   0  0  0  0  0  0  0  0  0  0  0  0
    3.3583   -1.6550    0.3978 H   0  0  0  0  0  0  0  0  0  0  0  0
    1.1554   -2.1710   -0.3788 H   0  0  0  0  0  0  0  0  0  0  0  0
   -1.3011   -2.2443   -0.1980 H   0  0  0  0  0  0  0  0  0  0  0  0
  1  4  1  0  0  0  0
  1  2  1  0  0  0  0
  2  3  1  0  0  0  0
  4 11  1  0  0  0  0
  5 12  1  0  0  0  0
  5  4  2  0  0  0  0
  6  5  1  0  0  0  0
  7  6  1  0  0  0  0
  8  7  1  0  0  0  0
  8 15  1  0  0  0  0
  9  6  2  0  0  0  0
  9 10  1  0  0  0  0
 10  1  2  0  0  0  0
 13  8  1  0  0  0  0
 14  8  1  0  0  0  0
 16  9  1  0  0  0  0
 17 10  1  0  0  0  0
M  RAD  2   2   2   3   3
M  END
