Coordinates from ORCA-job 4-MeOPhN2+_B3LYPG-6-31G_dp-d09-49-n800
 OpenBabel11261919463D

 17 16  0  0  0  0  0  0  0  0999 V2000
   -1.4416   -0.1631   -0.0431 C   0  0  0  0  0  0  0  0  0  0  0  0
   -2.7937   -0.1872    0.0588 N   0  0  0  0  0  0  0  0  0  0  0  0
   -3.9102   -0.2052    0.1430 N   0  0  0  0  0  0  0  0  0  0  0  0
   -0.7464    1.0532   -0.0120 C   0  0  0  0  0  0  0  0  0  0  0  0
    0.5950    1.1513   -0.1069 C   0  0  0  0  0  0  0  0  0  0  0  0
    1.3357   -0.0693   -0.2469 C   0  0  0  0  0  0  0  0  0  0  0  0
    2.6407    0.0757   -0.3343 O   0  0  0  0  0  0  0  0  0  0  0  0
    3.5167   -1.0668   -0.4765 C   0  0  0  0  0  0  0  0  0  0  0  0
    0.6568   -1.3208   -0.2824 C   0  0  0  0  0  0  0  0  0  0  0  0
   -0.7139   -1.3791   -0.1825 C   0  0  0  0  0  0  0  0  0  0  0  0
   -2.5484    3.5842    0.3011 H   0  0  0  0  0  0  0  0  0  0  0  0
    1.1405    2.0903   -0.0831 H   0  0  0  0  0  0  0  0  0  0  0  0
    4.5201   -0.6481   -0.5174 H   0  0  0  0  0  0  0  0  0  0  0  0
    3.2961   -1.6008   -1.4047 H   0  0  0  0  0  0  0  0  0  0  0  0
    3.4211   -1.7278    0.3891 H   0  0  0  0  0  0  0  0  0  0  0  0
    1.2158   -2.2417   -0.3887 H   0  0  0  0  0  0  0  0  0  0  0  0
   -1.2394   -2.3296   -0.2087 H   0  0  0  0  0  0  0  0  0  0  0  0
  1  4  1  0  0  0  0
  1  2  1  0  0  0  0
  2  3  1  0  0  0  0
  5 12  1  0  0  0  0
  5  4  2  0  0  0  0
  6  5  1  0  0  0  0
  7  6  1  0  0  0  0
  8  7  1  0  0  0  0
  8 15  1  0  0  0  0
  9  6  2  0  0  0  0
  9 10  1  0  0  0  0
 10  1  2  0  0  0  0
 13  8  1  0  0  0  0
 14  8  1  0  0  0  0
 16  9  1  0  0  0  0
 17 10  1  0  0  0  0
M  RAD  4   2   2   3   3   4   2  11   2
M  END
