Coordinates from ORCA-job 4-MeOPhN2+_B3LYPG-6-31G_dp-d09-49-n800
 OpenBabel11261919463D

 17 16  0  0  0  0  0  0  0  0999 V2000
   -1.4353   -0.1741   -0.0442 C   0  0  0  0  0  0  0  0  0  0  0  0
   -2.7878   -0.2010    0.0576 N   0  0  0  0  0  0  0  0  0  0  0  0
   -3.9044   -0.2215    0.1417 N   0  0  0  0  0  0  0  0  0  0  0  0
   -0.7426    1.0434   -0.0127 C   0  0  0  0  0  0  0  0  0  0  0  0
    0.5987    1.1412   -0.1076 C   0  0  0  0  0  0  0  0  0  0  0  0
    1.3413   -0.0783   -0.2478 C   0  0  0  0  0  0  0  0  0  0  0  0
    2.6463    0.0678   -0.3351 O   0  0  0  0  0  0  0  0  0  0  0  0
    3.5233   -1.0738   -0.4776 C   0  0  0  0  0  0  0  0  0  0  0  0
    0.6636   -1.3306   -0.2836 C   0  0  0  0  0  0  0  0  0  0  0  0
   -0.7069   -1.3900   -0.1839 C   0  0  0  0  0  0  0  0  0  0  0  0
   -2.6457    3.7412    0.3183 H   0  0  0  0  0  0  0  0  0  0  0  0
    1.1449    2.0803   -0.0838 H   0  0  0  0  0  0  0  0  0  0  0  0
    4.5263   -0.6543   -0.5183 H   0  0  0  0  0  0  0  0  0  0  0  0
    3.3031   -1.6079   -1.4059 H   0  0  0  0  0  0  0  0  0  0  0  0
    3.4282   -1.7352    0.3878 H   0  0  0  0  0  0  0  0  0  0  0  0
    1.2236   -2.2509   -0.3901 H   0  0  0  0  0  0  0  0  0  0  0  0
   -1.2318   -2.3409   -0.2103 H   0  0  0  0  0  0  0  0  0  0  0  0
  1  4  1  0  0  0  0
  1  2  1  0  0  0  0
  2  3  1  0  0  0  0
  5 12  1  0  0  0  0
  5  4  2  0  0  0  0
  6  5  1  0  0  0  0
  7  6  1  0  0  0  0
  8  7  1  0  0  0  0
  8 15  1  0  0  0  0
  9  6  2  0  0  0  0
  9 10  1  0  0  0  0
 10  1  2  0  0  0  0
 13  8  1  0  0  0  0
 14  8  1  0  0  0  0
 16  9  1  0  0  0  0
 17 10  1  0  0  0  0
M  RAD  4   2   2   3   3   4   2  11   2
M  END
