Coordinates from ORCA-job 4-MeOPhN2+_B3LYPG-6-31G_dp-d09-49-n800
 OpenBabel11261919463D

 17 16  0  0  0  0  0  0  0  0999 V2000
   -1.4314   -0.1830   -0.0450 C   0  0  0  0  0  0  0  0  0  0  0  0
   -2.7843   -0.2124    0.0566 N   0  0  0  0  0  0  0  0  0  0  0  0
   -3.9008   -0.2350    0.1405 N   0  0  0  0  0  0  0  0  0  0  0  0
   -0.7412    1.0359   -0.0130 C   0  0  0  0  0  0  0  0  0  0  0  0
    0.6002    1.1339   -0.1080 C   0  0  0  0  0  0  0  0  0  0  0  0
    1.3446   -0.0846   -0.2484 C   0  0  0  0  0  0  0  0  0  0  0  0
    2.6495    0.0629   -0.3355 O   0  0  0  0  0  0  0  0  0  0  0  0
    3.5275   -1.0778   -0.4783 C   0  0  0  0  0  0  0  0  0  0  0  0
    0.6683   -1.3377   -0.2844 C   0  0  0  0  0  0  0  0  0  0  0  0
   -0.7020   -1.3984   -0.1848 C   0  0  0  0  0  0  0  0  0  0  0  0
   -2.7063    3.8546    0.3301 H   0  0  0  0  0  0  0  0  0  0  0  0
    1.1465    2.0731   -0.0841 H   0  0  0  0  0  0  0  0  0  0  0  0
    4.5302   -0.6575   -0.5189 H   0  0  0  0  0  0  0  0  0  0  0  0
    3.3079   -1.6120   -1.4067 H   0  0  0  0  0  0  0  0  0  0  0  0
    3.4331   -1.7396    0.3869 H   0  0  0  0  0  0  0  0  0  0  0  0
    1.2293   -2.2574   -0.3910 H   0  0  0  0  0  0  0  0  0  0  0  0
   -1.2262   -2.3498   -0.2114 H   0  0  0  0  0  0  0  0  0  0  0  0
  1  4  1  0  0  0  0
  1  2  1  0  0  0  0
  2  3  1  0  0  0  0
  5 12  1  0  0  0  0
  5  4  2  0  0  0  0
  6  5  1  0  0  0  0
  7  6  1  0  0  0  0
  8  7  1  0  0  0  0
  8 15  1  0  0  0  0
  9  6  2  0  0  0  0
  9 10  1  0  0  0  0
 10  1  2  0  0  0  0
 13  8  1  0  0  0  0
 14  8  1  0  0  0  0
 16  9  1  0  0  0  0
 17 10  1  0  0  0  0
M  RAD  4   2   2   3   3   4   2  11   2
M  END
