Coordinates from ORCA-job 4-MeOPhN2+_B3LYPG-6-31G_dp-d09-49-n800
 OpenBabel11261919463D

 17 16  0  0  0  0  0  0  0  0999 V2000
   -1.4690   -0.1258   -0.0383 C   0  0  0  0  0  0  0  0  0  0  0  0
   -2.8194   -0.1480    0.0636 N   0  0  0  0  0  0  0  0  0  0  0  0
   -3.9360   -0.1637    0.1480 N   0  0  0  0  0  0  0  0  0  0  0  0
   -0.7776    1.0968   -0.0064 C   0  0  0  0  0  0  0  0  0  0  0  0
    0.5682    1.1871   -0.1024 C   0  0  0  0  0  0  0  0  0  0  0  0
    1.3049   -0.0321   -0.2422 C   0  0  0  0  0  0  0  0  0  0  0  0
    2.6107    0.1130   -0.3297 O   0  0  0  0  0  0  0  0  0  0  0  0
    3.4855   -1.0296   -0.4716 C   0  0  0  0  0  0  0  0  0  0  0  0
    0.6277   -1.2836   -0.2778 C   0  0  0  0  0  0  0  0  0  0  0  0
   -0.7436   -1.3405   -0.1777 C   0  0  0  0  0  0  0  0  0  0  0  0
   -2.0767    2.9770    0.2230 H   0  0  0  0  0  0  0  0  0  0  0  0
    1.1094    2.1265   -0.0779 H   0  0  0  0  0  0  0  0  0  0  0  0
    4.4892   -0.6118   -0.5125 H   0  0  0  0  0  0  0  0  0  0  0  0
    3.2650   -1.5641   -1.3996 H   0  0  0  0  0  0  0  0  0  0  0  0
    3.3899   -1.6907    0.3941 H   0  0  0  0  0  0  0  0  0  0  0  0
    1.1858   -2.2050   -0.3842 H   0  0  0  0  0  0  0  0  0  0  0  0
   -1.2691   -2.2902   -0.2039 H   0  0  0  0  0  0  0  0  0  0  0  0
  1  4  1  0  0  0  0
  1  2  1  0  0  0  0
  2  3  1  0  0  0  0
  5 12  1  0  0  0  0
  5  4  2  0  0  0  0
  6  5  1  0  0  0  0
  7  6  1  0  0  0  0
  8  7  1  0  0  0  0
  8 15  1  0  0  0  0
  9  6  2  0  0  0  0
  9 10  1  0  0  0  0
 10  1  2  0  0  0  0
 13  8  1  0  0  0  0
 14  8  1  0  0  0  0
 16  9  1  0  0  0  0
 17 10  1  0  0  0  0
M  RAD  4   2   2   3   3   4   2  11   2
M  END
