Coordinates from ORCA-job 4-MeOPhN2+_B3LYPG-6-31G_dp-d09-49-n800
 OpenBabel11261919463D

 17 17  0  0  0  0  0  0  0  0999 V2000
   -1.4933   -0.0607   -0.0319 C   0  0  0  0  0  0  0  0  0  0  0  0
   -2.8462   -0.1034    0.0682 N   0  0  0  0  0  0  0  0  0  0  0  0
   -3.9636   -0.1340    0.1510 N   0  0  0  0  0  0  0  0  0  0  0  0
   -0.8416    1.2016    0.0059 C   0  0  0  0  0  0  0  0  0  0  0  0
    0.5246    1.2261   -0.0957 C   0  0  0  0  0  0  0  0  0  0  0  0
    1.2617    0.0167   -0.2348 C   0  0  0  0  0  0  0  0  0  0  0  0
    2.5696    0.1639   -0.3224 O   0  0  0  0  0  0  0  0  0  0  0  0
    3.4418   -0.9784   -0.4652 C   0  0  0  0  0  0  0  0  0  0  0  0
    0.5891   -1.2334   -0.2707 C   0  0  0  0  0  0  0  0  0  0  0  0
   -0.7832   -1.2780   -0.1699 C   0  0  0  0  0  0  0  0  0  0  0  0
   -1.4277    2.1323    0.1149 H   0  0  0  0  0  0  0  0  0  0  0  0
    1.0727    2.1611   -0.0723 H   0  0  0  0  0  0  0  0  0  0  0  0
    4.4466   -0.5632   -0.5068 H   0  0  0  0  0  0  0  0  0  0  0  0
    3.2208   -1.5134   -1.3931 H   0  0  0  0  0  0  0  0  0  0  0  0
    3.3468   -1.6410    0.3996 H   0  0  0  0  0  0  0  0  0  0  0  0
    1.1423   -2.1578   -0.3769 H   0  0  0  0  0  0  0  0  0  0  0  0
   -1.3152   -2.2230   -0.1954 H   0  0  0  0  0  0  0  0  0  0  0  0
  1  4  1  0  0  0  0
  1  2  1  0  0  0  0
  2  3  1  0  0  0  0
  4 11  1  0  0  0  0
  5 12  1  0  0  0  0
  5  4  2  0  0  0  0
  6  5  1  0  0  0  0
  7  6  1  0  0  0  0
  8  7  1  0  0  0  0
  8 15  1  0  0  0  0
  9  6  2  0  0  0  0
  9 10  1  0  0  0  0
 10  1  2  0  0  0  0
 13  8  1  0  0  0  0
 14  8  1  0  0  0  0
 16  9  1  0  0  0  0
 17 10  1  0  0  0  0
M  RAD  2   2   2   3   3
M  END
