Coordinates from ORCA-job 4-MeOPhN2+_B3LYPG-6-31G_dp-d09-49-n800
 OpenBabel11261919463D

 17 16  0  0  0  0  0  0  0  0999 V2000
   -1.4794   -0.1055   -0.0361 C   0  0  0  0  0  0  0  0  0  0  0  0
   -2.8299   -0.1333    0.0654 N   0  0  0  0  0  0  0  0  0  0  0  0
   -3.9467   -0.1533    0.1496 N   0  0  0  0  0  0  0  0  0  0  0  0
   -0.7992    1.1283   -0.0024 C   0  0  0  0  0  0  0  0  0  0  0  0
    0.5529    1.2021   -0.0999 C   0  0  0  0  0  0  0  0  0  0  0  0
    1.2886   -0.0142   -0.2395 C   0  0  0  0  0  0  0  0  0  0  0  0
    2.5952    0.1316   -0.3269 O   0  0  0  0  0  0  0  0  0  0  0  0
    3.4691   -1.0109   -0.4692 C   0  0  0  0  0  0  0  0  0  0  0  0
    0.6138   -1.2659   -0.2754 C   0  0  0  0  0  0  0  0  0  0  0  0
   -0.7579   -1.3204   -0.1752 C   0  0  0  0  0  0  0  0  0  0  0  0
   -1.8386    2.6852    0.1841 H   0  0  0  0  0  0  0  0  0  0  0  0
    1.0945    2.1404   -0.0756 H   0  0  0  0  0  0  0  0  0  0  0  0
    4.4732   -0.5939   -0.5102 H   0  0  0  0  0  0  0  0  0  0  0  0
    3.2487   -1.5455   -1.3972 H   0  0  0  0  0  0  0  0  0  0  0  0
    3.3738   -1.6726    0.3961 H   0  0  0  0  0  0  0  0  0  0  0  0
    1.1711   -2.1877   -0.3818 H   0  0  0  0  0  0  0  0  0  0  0  0
   -1.2843   -2.2691   -0.2013 H   0  0  0  0  0  0  0  0  0  0  0  0
  1  4  1  0  0  0  0
  1  2  1  0  0  0  0
  2  3  1  0  0  0  0
  5 12  1  0  0  0  0
  5  4  2  0  0  0  0
  6  5  1  0  0  0  0
  7  6  1  0  0  0  0
  8  7  1  0  0  0  0
  8 15  1  0  0  0  0
  9  6  2  0  0  0  0
  9 10  1  0  0  0  0
 10  1  2  0  0  0  0
 13  8  1  0  0  0  0
 14  8  1  0  0  0  0
 16  9  1  0  0  0  0
 17 10  1  0  0  0  0
M  RAD  4   2   2   3   3   4   2  11   2
M  END
