Coordinates from ORCA-job 4-MeOPhN2+_B3LYPG-6-31G_dp-d09-49-n800
 OpenBabel11261919463D

 17 16  0  0  0  0  0  0  0  0999 V2000
   -1.4848   -0.0904   -0.0347 C   0  0  0  0  0  0  0  0  0  0  0  0
   -2.8358   -0.1240    0.0663 N   0  0  0  0  0  0  0  0  0  0  0  0
   -3.9528   -0.1480    0.1501 N   0  0  0  0  0  0  0  0  0  0  0  0
   -0.8148    1.1536    0.0005 C   0  0  0  0  0  0  0  0  0  0  0  0
    0.5426    1.2109   -0.0984 C   0  0  0  0  0  0  0  0  0  0  0  0
    1.2783   -0.0028   -0.2377 C   0  0  0  0  0  0  0  0  0  0  0  0
    2.5856    0.1433   -0.3251 O   0  0  0  0  0  0  0  0  0  0  0  0
    3.4587   -0.9990   -0.4677 C   0  0  0  0  0  0  0  0  0  0  0  0
    0.6049   -1.2544   -0.2737 C   0  0  0  0  0  0  0  0  0  0  0  0
   -0.7669   -1.3060   -0.1734 C   0  0  0  0  0  0  0  0  0  0  0  0
   -1.6872    2.4924    0.1593 H   0  0  0  0  0  0  0  0  0  0  0  0
    1.0862    2.1479   -0.0744 H   0  0  0  0  0  0  0  0  0  0  0  0
    4.4631   -0.5828   -0.5090 H   0  0  0  0  0  0  0  0  0  0  0  0
    3.2381   -1.5338   -1.3957 H   0  0  0  0  0  0  0  0  0  0  0  0
    3.3636   -1.6612    0.3973 H   0  0  0  0  0  0  0  0  0  0  0  0
    1.1611   -2.1768   -0.3800 H   0  0  0  0  0  0  0  0  0  0  0  0
   -1.2948   -2.2536   -0.1993 H   0  0  0  0  0  0  0  0  0  0  0  0
  1  4  1  0  0  0  0
  1  2  1  0  0  0  0
  2  3  1  0  0  0  0
  5 12  1  0  0  0  0
  5  4  2  0  0  0  0
  6  5  1  0  0  0  0
  7  6  1  0  0  0  0
  8  7  1  0  0  0  0
  8 15  1  0  0  0  0
  9  6  2  0  0  0  0
  9 10  1  0  0  0  0
 10  1  2  0  0  0  0
 13  8  1  0  0  0  0
 14  8  1  0  0  0  0
 16  9  1  0  0  0  0
 17 10  1  0  0  0  0
M  RAD  4   2   2   3   3   4   2  11   2
M  END
