Coordinates from ORCA-job 4-MeOPhN2+_B3LYPG-6-31G_dp-d09-49-n800
 OpenBabel11261919463D

 17 16  0  0  0  0  0  0  0  0999 V2000
   -1.4838   -0.0936   -0.0350 C   0  0  0  0  0  0  0  0  0  0  0  0
   -2.8346   -0.1259    0.0662 N   0  0  0  0  0  0  0  0  0  0  0  0
   -3.9516   -0.1491    0.1500 N   0  0  0  0  0  0  0  0  0  0  0  0
   -0.8117    1.1483   -0.0001 C   0  0  0  0  0  0  0  0  0  0  0  0
    0.5446    1.2092   -0.0987 C   0  0  0  0  0  0  0  0  0  0  0  0
    1.2803   -0.0050   -0.2381 C   0  0  0  0  0  0  0  0  0  0  0  0
    2.5874    0.1410   -0.3255 O   0  0  0  0  0  0  0  0  0  0  0  0
    3.4608   -1.0013   -0.4680 C   0  0  0  0  0  0  0  0  0  0  0  0
    0.6066   -1.2567   -0.2741 C   0  0  0  0  0  0  0  0  0  0  0  0
   -0.7651   -1.3089   -0.1738 C   0  0  0  0  0  0  0  0  0  0  0  0
   -1.7170    2.5311    0.1643 H   0  0  0  0  0  0  0  0  0  0  0  0
    1.0877    2.1465   -0.0747 H   0  0  0  0  0  0  0  0  0  0  0  0
    4.4651   -0.5850   -0.5092 H   0  0  0  0  0  0  0  0  0  0  0  0
    3.2402   -1.5361   -1.3959 H   0  0  0  0  0  0  0  0  0  0  0  0
    3.3656   -1.6634    0.3971 H   0  0  0  0  0  0  0  0  0  0  0  0
    1.1632   -2.1790   -0.3804 H   0  0  0  0  0  0  0  0  0  0  0  0
   -1.2927   -2.2568   -0.1997 H   0  0  0  0  0  0  0  0  0  0  0  0
  1  4  1  0  0  0  0
  1  2  1  0  0  0  0
  2  3  1  0  0  0  0
  5 12  1  0  0  0  0
  5  4  2  0  0  0  0
  6  5  1  0  0  0  0
  7  6  1  0  0  0  0
  8  7  1  0  0  0  0
  8 15  1  0  0  0  0
  9  6  2  0  0  0  0
  9 10  1  0  0  0  0
 10  1  2  0  0  0  0
 13  8  1  0  0  0  0
 14  8  1  0  0  0  0
 16  9  1  0  0  0  0
 17 10  1  0  0  0  0
M  RAD  4   2   2   3   3   4   2  11   2
M  END
