Coordinates from ORCA-job 4-MeOPhN2+_B3LYPG-6-31G_dp-d09-49-n800
 OpenBabel11261919463D

 17 17  0  0  0  0  0  0  0  0999 V2000
   -1.4917   -0.0661   -0.0324 C   0  0  0  0  0  0  0  0  0  0  0  0
   -2.8442   -0.1077    0.0676 N   0  0  0  0  0  0  0  0  0  0  0  0
   -3.9616   -0.1376    0.1505 N   0  0  0  0  0  0  0  0  0  0  0  0
   -0.8372    1.1935    0.0050 C   0  0  0  0  0  0  0  0  0  0  0  0
    0.5277    1.2232   -0.0960 C   0  0  0  0  0  0  0  0  0  0  0  0
    1.2645    0.0132   -0.2351 C   0  0  0  0  0  0  0  0  0  0  0  0
    2.5723    0.1602   -0.3226 O   0  0  0  0  0  0  0  0  0  0  0  0
    3.4446   -0.9820   -0.4658 C   0  0  0  0  0  0  0  0  0  0  0  0
    0.5919   -1.2373   -0.2710 C   0  0  0  0  0  0  0  0  0  0  0  0
   -0.7803   -1.2831   -0.1704 C   0  0  0  0  0  0  0  0  0  0  0  0
   -1.4731    2.1989    0.1226 H   0  0  0  0  0  0  0  0  0  0  0  0
    1.0752    2.1584   -0.0726 H   0  0  0  0  0  0  0  0  0  0  0  0
    4.4494   -0.5667   -0.5074 H   0  0  0  0  0  0  0  0  0  0  0  0
    3.2236   -1.5168   -1.3937 H   0  0  0  0  0  0  0  0  0  0  0  0
    3.3498   -1.6448    0.3989 H   0  0  0  0  0  0  0  0  0  0  0  0
    1.1457   -2.1613   -0.3771 H   0  0  0  0  0  0  0  0  0  0  0  0
   -1.3115   -2.2285   -0.1959 H   0  0  0  0  0  0  0  0  0  0  0  0
  1  4  1  0  0  0  0
  1  2  1  0  0  0  0
  2  3  1  0  0  0  0
  4 11  1  0  0  0  0
  5 12  1  0  0  0  0
  5  4  2  0  0  0  0
  6  5  1  0  0  0  0
  7  6  1  0  0  0  0
  8  7  1  0  0  0  0
  8 15  1  0  0  0  0
  9  6  2  0  0  0  0
  9 10  1  0  0  0  0
 10  1  2  0  0  0  0
 13  8  1  0  0  0  0
 14  8  1  0  0  0  0
 16  9  1  0  0  0  0
 17 10  1  0  0  0  0
M  RAD  2   2   2   3   3
M  END
