Coordinates from ORCA-job 4-MeOPhN2+_B3LYPG-6-31G_dp-d09-49-n800
 OpenBabel11261919463D

 17 16  0  0  0  0  0  0  0  0999 V2000
   -1.4229   -0.3008   -0.0531 C   0  0  0  0  0  0  0  0  0  0  0  0
   -2.7766   -0.3687    0.0459 N   0  0  0  0  0  0  0  0  0  0  0  0
   -3.8926   -0.4212    0.1275 N   0  0  0  0  0  0  0  0  0  0  0  0
   -0.7731    0.9400   -0.0159 C   0  0  0  0  0  0  0  0  0  0  0  0
    0.5683    1.0630   -0.1091 C   0  0  0  0  0  0  0  0  0  0  0  0
    1.3449   -0.1342   -0.2512 C   0  0  0  0  0  0  0  0  0  0  0  0
    2.6472    0.0458   -0.3360 O   0  0  0  0  0  0  0  0  0  0  0  0
    3.5518   -1.0726   -0.4803 C   0  0  0  0  0  0  0  0  0  0  0  0
    0.7018   -1.4046   -0.2916 C   0  0  0  0  0  0  0  0  0  0  0  0
   -0.6663   -1.4996   -0.1945 C   0  0  0  0  0  0  0  0  0  0  0  0
   -2.9174    4.9065    0.4149 H   0  0  0  0  0  0  0  0  0  0  0  0
    1.0965    2.0135   -0.0826 H   0  0  0  0  0  0  0  0  0  0  0  0
    4.5446   -0.6292   -0.5184 H   0  0  0  0  0  0  0  0  0  0  0  0
    3.3468   -1.6101   -1.4103 H   0  0  0  0  0  0  0  0  0  0  0  0
    3.4725   -1.7395    0.3826 H   0  0  0  0  0  0  0  0  0  0  0  0
    1.2867   -2.3092   -0.3991 H   0  0  0  0  0  0  0  0  0  0  0  0
   -1.1672   -2.4637   -0.2242 H   0  0  0  0  0  0  0  0  0  0  0  0
  1  4  1  0  0  0  0
  1  2  1  0  0  0  0
  2  3  1  0  0  0  0
  5 12  1  0  0  0  0
  5  4  2  0  0  0  0
  6  5  1  0  0  0  0
  7  6  1  0  0  0  0
  8  7  1  0  0  0  0
  8 15  1  0  0  0  0
  9  6  2  0  0  0  0
  9 10  1  0  0  0  0
 10  1  2  0  0  0  0
 13  8  1  0  0  0  0
 14  8  1  0  0  0  0
 16  9  1  0  0  0  0
 17 10  1  0  0  0  0
M  RAD  4   2   2   3   3   4   2  11   2
M  END
