33
Coordinates from ORCA-job 4-NO2PhN2+~TsO-_B3LYPG-6-31G_dp-CH-Scan-d09-49-n800
  C   -3.00481600757960      0.88855694562314     -0.97854882776309
  N   -3.96534765167388     -0.13987194243906     -0.82037481575111
  N   -4.70537107462956     -0.97087395904619     -0.79635073205880
  C   -2.54494527266820      0.97015646488718     -2.29127704693334
  C   -1.58878761039318      2.02589732607503     -2.39595642267259
  C   -1.21458530388903      2.79405854186575     -1.30132679559053
  N   -0.24254392633545      3.89624137132548     -1.48812714182502
  O   0.43453338555309      3.89954229789788     -2.51225678768305
  O   -0.19852209185861      4.76579484588310     -0.61402815512491
  C   -1.74465055928066      2.62241980209909     -0.00243405408040
  C   -2.68464494354443      1.62843196752673      0.18608125981505
  H   -3.99096013773669      3.89859126127422     -0.18969033712851
  H   -1.13086682977993      2.26133079605349     -3.35360954006828
  H   -1.41130950992785      3.25887121808285      0.80682846953384
  H   -3.17128806238610      1.47086282714685      1.14350966714395
  C   -6.58035691084750      5.22743152610125      1.12109539525707
  C   -6.32387499052733      6.49601773831724      0.60817714193403
  C   -5.41272357308872      6.76041576667776     -0.46303251940633
  C   -4.76630289914175      5.68710353623423     -1.01257650018002
  C   -4.96883885468922      4.31372337845301     -0.51851467096495
  C   -5.92518472505574      4.12917027174446      0.58170319752211
  H   -7.29616980947378      5.07407091656975      1.92196036543940
  H   -6.85267084470392      7.34334267676199      1.04110813860878
  H   -4.06460494321212      5.82829671602111     -1.83096073665799
  H   -5.20940173127759      3.60898785502726     -1.33353523344596
  S   -6.16935096748621      2.47342045582374      1.28095808116878
  O   -7.50383850288403      2.52843132457239      1.89380035285121
  O   -5.01390267673466      2.47451326191820      2.22137290254744
  O   -6.00790880716819      1.57455700563364      0.11488035176348
  C   -5.20700011246359      8.17606426470957     -0.93999821936569
  H   -6.14995224264585      8.61821331432617     -1.27889276633081
  H   -4.82088652870950      8.80894792349260     -0.13346222484882
  H   -4.49652528376019      8.21498230336022     -1.76872179570492
