33
Coordinates from ORCA-job 4-NO2PhN2+~TsO-_B3LYPG-6-31G_dp-CH-Scan-d09-49-n800
  C   -2.72278776768900      1.12106951761612     -0.92437613147525
  N   -3.95481385781055      0.43021962726916     -0.81099626360457
  N   -4.90963071145659     -0.14188351628128     -0.83786207651288
  C   -2.34656890814840      1.30569703987080     -2.25175559297670
  C   -1.09225617896641      1.97136632962439     -2.32047805386435
  C   -0.39384861372965      2.33229875469962     -1.17419974111029
  N   0.91521633945718      3.01979953543909     -1.31077857115667
  O   1.34659820841407      3.21138171408952     -2.44523155221460
  O   1.48904223022302      3.36601106535487     -0.27768298005633
  C   -0.86316998030068      2.10350744788385      0.13595218473105
  C   -2.08307519720271      1.47925359831783      0.28614914879141
  H   -4.80804323358064      4.01943828677470     -1.00930779272318
  H   -0.64473923279684      2.21478096294481     -3.28023382101104
  H   -0.27314855369721      2.42707012989660      0.98263854720797
  H   -2.53983421830682      1.30757903476568      1.25405706801861
  C   -6.54724665460786      5.34407300165761      1.34417934018131
  C   -6.45372938793575      6.64297197592648      0.84621677143847
  C   -6.03411964451551      6.96287492331936     -0.48420506058904
  C   -5.71452938423121      5.91960731348686     -1.30910084619116
  C   -5.78618547477981      4.51334860866210     -0.86260903112114
  C   -6.21973865963670      4.27561457582435      0.52561190930602
  H   -6.88034000292924      5.14516733686219      2.35721620225684
  H   -6.71826521185893      7.46873348587201      1.50463325668336
  H   -5.39107076441219      6.10570409709846     -2.33007627928892
  H   -6.43047612839167      3.91453843049529     -1.53118905662422
  S   -6.28454069004756      2.57027780591728      1.13844856656818
  O   -6.99785560950867      2.66248170186051      2.42008900806529
  O   -4.82046044305151      2.29814087384191      1.22594363127109
  O   -6.96456878165783      1.85852931495695      0.03444375988412
  C   -5.96468678192729      8.40553740188968     -0.91811249766653
  H   -6.94662440335195      8.88583177120772     -0.84477533454153
  H   -5.27601926000074      8.97334519341142     -0.28346169250918
  H   -5.62208304156436      8.49333265944425     -1.95134701916615
