33
Coordinates from ORCA-job 4-NO2PhN2+~TsO-_B3LYPG-6-31G_dp-CH-Scan-d09-49-n800
  C   -2.29146140240687      1.21163408700916     -0.27525014275461
  N   -3.53911689862540      0.72720246689975      0.17021687268701
  N   -4.53915462829183      0.37826633468643      0.51420973492379
  C   -2.35759206851348      2.38689249690928     -1.02384038880275
  C   -1.05557346186167      2.78845985578190     -1.43006476795040
  C   0.07820107496530      2.05508233691031     -1.10516750275748
  N   1.40654787515251      2.52709359217469     -1.57228591744031
  O   1.44334503760034      3.54828023475968     -2.25373473243286
  O   2.39210348108190      1.86568772860839     -1.24607424105029
  C   0.05120572770013      0.87111266891412     -0.34198663744622
  C   -1.17442841877435      0.42110324406981      0.09722436970487
  H   -5.13551453209840      4.21956093875137     -1.04088253679161
  H   -0.91401836370123      3.69241382694217     -2.01582218180741
  H   0.97289995915653      0.35134386834356     -0.11883777196285
  H   -1.27144009655363     -0.48167450315918      0.69340769737487
  C   -6.98067778649086      5.58956219598774      1.16449009916493
  C   -6.85575263542837      6.86915750140418      0.63394904807762
  C   -6.39157675060707      7.14312611925538     -0.69234844184260
  C   -6.05903449270244      6.07243466007124     -1.47547517621375
  C   -6.14237014286429      4.68575093270442     -0.98258269650848
  C   -6.64197128514848      4.49146469352410      0.38437815965619
  H   -7.36392656971570      5.42849901078357      2.16617372961354
  H   -7.13670496360426      7.71673147513194      1.25675656529949
  H   -5.70093067118254      6.22450780334399     -2.49034463028848
  H   -6.69746447124825      4.02122581904388     -1.66640423215799
  S   -6.74299566262440      2.81205007147489      1.05463016715787
  O   -7.85132808727012      2.87518795096541      2.02231813758284
  O   -5.37565588893445      2.74078409506972      1.64529525181921
  O   -6.94348854792308      1.96596132706184     -0.13998922414714
  C   -6.29654458734191      8.57097590692442     -1.16882744040439
  H   -7.27236131897829      9.06706897315259     -1.12346945432492
  H   -5.60830534721573      9.14880272801216     -0.54249297784792
  H   -5.93851407554965      8.62194955848709     -2.19936873812977
