33
Coordinates from ORCA-job 4-NO2PhN2+~TsO-_B3LYPG-6-31G_dp-CH-Scan-d09-49-n800
  C   -2.75533103268393      1.17066592288609     -0.91132301697970
  N   -3.97096724735221      0.44912468904504     -0.82216911557989
  N   -4.91278933117845     -0.14303446079665     -0.86613293385591
  C   -2.41287586745847      1.46355011241712     -2.22855145195726
  C   -1.17074038321775      2.15369173287167     -2.27261491689644
  C   -0.44958492263911      2.43394201074901     -1.11785774758923
  N   0.84692057913696      3.14901052035848     -1.23023710861687
  O   1.24797956022112      3.43504027279475     -2.35595676698421
  O   1.44178628645416      3.42051519178354     -0.18684538379207
  C   -0.88605184490354      2.09955268764027      0.18068361874292
  C   -2.09415587300544      1.44823227061949      0.30844788723678
  H   -4.98482603338729      3.89027071067524     -1.16178924384056
  H   -0.75064549970228      2.48067973169771     -3.21976055583390
  H   -0.28239375963417      2.36845017763836      1.03687337765493
  H   -2.52726493770007      1.19925138597255      1.27033182956094
  C   -6.39772474796862      5.31845674851275      1.35032743984906
  C   -6.27026891255627      6.60912198698802      0.84044562696094
  C   -5.95992426215392      6.90403920342511     -0.52545574266346
  C   -5.79091825811950      5.84451557293583     -1.37350702995732
  C   -5.90940178125039      4.44494741091251     -0.91665156235453
  C   -6.21776213013136      4.23234998578152      0.50847689556758
  H   -6.64883210986847      5.14068588886711      2.39070911134304
  H   -6.42017849594366      7.44887162879317      1.51699843043203
  H   -5.55676808355536      6.01174913234499     -2.42188431389769
  H   -6.65186257080281      3.88782087635754     -1.51611522983258
  S   -6.31344480958545      2.53506266130887      1.13758280313268
  O   -7.02448089410666      2.65324305837602      2.41867341161403
  O   -4.85011458681060      2.25564268446353      1.23147353841388
  O   -6.99834265528763      1.81099004093434      0.04621901858115
  C   -5.83864892584213      8.34001182773553     -0.96981257086784
  H   -6.77434109421113      8.88463642108164     -0.80068326014844
  H   -5.05381242256942      8.85912575676072     -0.40949832748942
  H   -5.59583295218614      8.40748615806829     -2.03259670995261
