Coordinates from ORCA-job PhN2+~HSO4-_B3LYPG-6-31G_dp-CH-Scan-d09-49-n800
 OpenBabel11261919183D

 19 18  0  0  0  0  0  0  0  0999 V2000
   -1.6770   -0.2672   -0.0429 C   0  0  0  0  0  0  0  0  0  0  0  0
   -3.0303   -0.5744    0.0902 N   0  0  0  0  0  0  0  0  0  0  0  0
   -4.1238   -0.7699    0.2219 N   0  0  0  0  0  0  0  0  0  0  0  0
   -1.3733    1.0455    0.3530 C   0  0  0  0  0  0  0  0  0  0  0  0
    0.0247    1.2691    0.1915 C   0  0  0  0  0  0  0  0  0  0  0  0
    0.9163    0.3140   -0.2866 C   0  0  0  0  0  0  0  0  0  0  0  0
    0.4877   -0.9854   -0.6562 C   0  0  0  0  0  0  0  0  0  0  0  0
   -0.8454   -1.3088   -0.5389 C   0  0  0  0  0  0  0  0  0  0  0  0
   -4.0745    3.4831    1.1901 H   0  0  0  0  0  0  0  0  0  0  0  0
    0.4325    2.2456    0.4562 H   0  0  0  0  0  0  0  0  0  0  0  0
    1.9731    0.5575   -0.3854 H   0  0  0  0  0  0  0  0  0  0  0  0
    1.2004   -1.7155   -1.0256 H   0  0  0  0  0  0  0  0  0  0  0  0
   -1.2333   -2.2880   -0.8067 H   0  0  0  0  0  0  0  0  0  0  0  0
   -5.8841    3.1819    0.0859 S   0  0  0  0  0  0  0  0  0  0  0  0
   -4.9253    3.9532    1.1378 O   0  0  0  0  0  0  0  0  0  0  0  0
   -5.5619    1.7709    0.0882 O   0  0  0  0  0  0  0  0  0  0  0  0
   -7.2122    3.7089    0.3140 O   0  0  0  0  0  0  0  0  0  0  0  0
   -5.3411    3.7479   -1.3390 O   0  0  0  0  0  0  0  0  0  0  0  0
   -5.7680    4.6069   -1.4988 H   0  0  0  0  0  0  0  0  0  0  0  0
  1  2  1  0  0  0  0
  1  4  2  0  0  0  0
  2  3  1  0  0  0  0
  5  4  1  0  0  0  0
  5 10  1  0  0  0  0
  6  5  2  0  0  0  0
  7  8  2  0  0  0  0
  7  6  1  0  0  0  0
  8  1  1  0  0  0  0
 11  6  1  0  0  0  0
 12  7  1  0  0  0  0
 13  8  1  0  0  0  0
 14 16  2  0  0  0  0
 14 17  2  0  0  0  0
 14 15  1  0  0  0  0
 15  9  1  0  0  0  0
 18 14  1  0  0  0  0
 19 18  1  0  0  0  0
M  RAD  3   2   2   3   3   4   2
M  END
