Coordinates from ORCA-job PhN2+~HSO4-_B3LYPG-6-31G_dp-CH-Scan-d09-49-n800
 OpenBabel11261919183D

 19 18  0  0  0  0  0  0  0  0999 V2000
   -1.7601   -0.2453   -0.0534 C   0  0  0  0  0  0  0  0  0  0  0  0
   -3.1032   -0.5933    0.0651 N   0  0  0  0  0  0  0  0  0  0  0  0
   -4.1903   -0.8286    0.1799 N   0  0  0  0  0  0  0  0  0  0  0  0
   -1.4957    1.0871    0.3070 C   0  0  0  0  0  0  0  0  0  0  0  0
   -0.1037    1.3470    0.1609 C   0  0  0  0  0  0  0  0  0  0  0  0
    0.8223    0.4040   -0.2743 C   0  0  0  0  0  0  0  0  0  0  0  0
    0.4365   -0.9168   -0.6110 C   0  0  0  0  0  0  0  0  0  0  0  0
   -0.8887   -1.2747   -0.5047 C   0  0  0  0  0  0  0  0  0  0  0  0
   -3.8702    3.2480    1.0827 H   0  0  0  0  0  0  0  0  0  0  0  0
    0.2708    2.3422    0.4027 H   0  0  0  0  0  0  0  0  0  0  0  0
    1.8731    0.6749   -0.3634 H   0  0  0  0  0  0  0  0  0  0  0  0
    1.1750   -1.6370   -0.9477 H   0  0  0  0  0  0  0  0  0  0  0  0
   -1.2440   -2.2719   -0.7498 H   0  0  0  0  0  0  0  0  0  0  0  0
   -5.7675    3.1303    0.0968 S   0  0  0  0  0  0  0  0  0  0  0  0
   -4.6868    3.7804    1.1059 O   0  0  0  0  0  0  0  0  0  0  0  0
   -5.5801    1.6956    0.0435 O   0  0  0  0  0  0  0  0  0  0  0  0
   -7.0285    3.7657    0.4140 O   0  0  0  0  0  0  0  0  0  0  0  0
   -5.2593    3.6849   -1.3463 O   0  0  0  0  0  0  0  0  0  0  0  0
   -5.6150    4.5829   -1.4589 H   0  0  0  0  0  0  0  0  0  0  0  0
  1  2  1  0  0  0  0
  1  4  2  0  0  0  0
  2  3  1  0  0  0  0
  5  4  1  0  0  0  0
  5 10  1  0  0  0  0
  6  5  2  0  0  0  0
  7  8  2  0  0  0  0
  7  6  1  0  0  0  0
  8  1  1  0  0  0  0
  9 15  1  0  0  0  0
 11  6  1  0  0  0  0
 12  7  1  0  0  0  0
 13  8  1  0  0  0  0
 14 17  2  0  0  0  0
 14 15  1  0  0  0  0
 16 14  2  0  0  0  0
 18 14  1  0  0  0  0
 19 18  1  0  0  0  0
M  RAD  3   2   2   3   3   4   2
M  END
