Coordinates from ORCA-job PhN2+~HSO4-_B3LYPG-6-31G_dp-CH-Scan-d09-49-n800
 OpenBabel11261919183D

 19 18  0  0  0  0  0  0  0  0999 V2000
   -1.9912   -0.1747   -0.0603 C   0  0  0  0  0  0  0  0  0  0  0  0
   -3.3014   -0.6248    0.0332 N   0  0  0  0  0  0  0  0  0  0  0  0
   -4.3635   -0.9585    0.1180 N   0  0  0  0  0  0  0  0  0  0  0  0
   -1.8117    1.1917    0.2249 C   0  0  0  0  0  0  0  0  0  0  0  0
   -0.4430    1.5441    0.1088 C   0  0  0  0  0  0  0  0  0  0  0  0
    0.5592    0.6428   -0.2403 C   0  0  0  0  0  0  0  0  0  0  0  0
    0.2724   -0.7151   -0.5096 C   0  0  0  0  0  0  0  0  0  0  0  0
   -1.0298   -1.1562   -0.4224 C   0  0  0  0  0  0  0  0  0  0  0  0
   -3.3671    2.6184    0.7357 H   0  0  0  0  0  0  0  0  0  0  0  0
   -0.1514    2.5749    0.3037 H   0  0  0  0  0  0  0  0  0  0  0  0
    1.5911    0.9808   -0.3111 H   0  0  0  0  0  0  0  0  0  0  0  0
    1.0664   -1.4025   -0.7816 H   0  0  0  0  0  0  0  0  0  0  0  0
   -1.3075   -2.1874   -0.6204 H   0  0  0  0  0  0  0  0  0  0  0  0
   -5.4011    2.9722    0.1236 S   0  0  0  0  0  0  0  0  0  0  0  0
   -4.0806    3.2914    0.9510 O   0  0  0  0  0  0  0  0  0  0  0  0
   -5.5498    1.5383   -0.0555 O   0  0  0  0  0  0  0  0  0  0  0  0
   -6.4530    3.8044    0.6745 O   0  0  0  0  0  0  0  0  0  0  0  0
   -5.0372    3.5403   -1.3650 O   0  0  0  0  0  0  0  0  0  0  0  0
   -5.2165    4.4953   -1.3586 H   0  0  0  0  0  0  0  0  0  0  0  0
  1  2  1  0  0  0  0
  1  4  2  0  0  0  0
  2  3  1  0  0  0  0
  5  4  1  0  0  0  0
  5 10  1  0  0  0  0
  6  5  2  0  0  0  0
  7  8  2  0  0  0  0
  7  6  1  0  0  0  0
  8  1  1  0  0  0  0
  9 15  1  0  0  0  0
 11  6  1  0  0  0  0
 12  7  1  0  0  0  0
 13  8  1  0  0  0  0
 14 17  2  0  0  0  0
 14 15  1  0  0  0  0
 16 14  2  0  0  0  0
 18 19  1  0  0  0  0
 18 14  1  0  0  0  0
M  RAD  3   2   2   3   3   4   2
M  END
