Coordinates from ORCA-job PhN2+~HSO4-_B3LYPG-6-31G_dp-CH-Scan-d09-49-n800
 OpenBabel11261919183D

 19 18  0  0  0  0  0  0  0  0999 V2000
   -1.5448   -0.2843    0.0720 C   0  0  0  0  0  0  0  0  0  0  0  0
   -2.9000   -0.5268    0.3034 N   0  0  0  0  0  0  0  0  0  0  0  0
   -3.9884   -0.6637    0.5244 N   0  0  0  0  0  0  0  0  0  0  0  0
   -1.1291    0.9523    0.5873 C   0  0  0  0  0  0  0  0  0  0  0  0
    0.2610    1.1218    0.3190 C   0  0  0  0  0  0  0  0  0  0  0  0
    1.0438    0.1885   -0.3529 C   0  0  0  0  0  0  0  0  0  0  0  0
    0.5034   -1.0331   -0.8280 C   0  0  0  0  0  0  0  0  0  0  0  0
   -0.8310   -1.3006   -0.6202 C   0  0  0  0  0  0  0  0  0  0  0  0
   -4.4897    3.7926    1.3717 H   0  0  0  0  0  0  0  0  0  0  0  0
    0.7514    2.0368    0.6552 H   0  0  0  0  0  0  0  0  0  0  0  0
    2.1003    0.3879   -0.5262 H   0  0  0  0  0  0  0  0  0  0  0  0
    1.1337   -1.7482   -1.3469 H   0  0  0  0  0  0  0  0  0  0  0  0
   -1.3018   -2.2196   -0.9595 H   0  0  0  0  0  0  0  0  0  0  0  0
   -6.0403    3.2279    0.0077 S   0  0  0  0  0  0  0  0  0  0  0  0
   -5.3656    4.1561    1.1542 O   0  0  0  0  0  0  0  0  0  0  0  0
   -5.5296    1.8795    0.1303 O   0  0  0  0  0  0  0  0  0  0  0  0
   -7.4462    3.5685    0.0109 O   0  0  0  0  0  0  0  0  0  0  0  0
   -5.3653    3.8285   -1.3437 O   0  0  0  0  0  0  0  0  0  0  0  0
   -5.8774    4.6113   -1.6101 H   0  0  0  0  0  0  0  0  0  0  0  0
  1  2  1  0  0  0  0
  1  4  2  0  0  0  0
  2  3  1  0  0  0  0
  5  4  1  0  0  0  0
  5 10  1  0  0  0  0
  6  5  2  0  0  0  0
  7  8  2  0  0  0  0
  7  6  1  0  0  0  0
  8  1  1  0  0  0  0
 11  6  1  0  0  0  0
 12  7  1  0  0  0  0
 13  8  1  0  0  0  0
 14 17  2  0  0  0  0
 14 16  2  0  0  0  0
 14 15  1  0  0  0  0
 15  9  1  0  0  0  0
 18 14  1  0  0  0  0
 19 18  1  0  0  0  0
M  RAD  3   2   2   3   3   4   2
M  END
