Coordinates from ORCA-job PhN2+~HSO4-_B3LYPG-6-31G_dp-CH-Scan-d09-49-n800
 OpenBabel11261919183D

 19 18  0  0  0  0  0  0  0  0999 V2000
   -1.6705   -0.2688   -0.0412 C   0  0  0  0  0  0  0  0  0  0  0  0
   -3.0246   -0.5729    0.0940 N   0  0  0  0  0  0  0  0  0  0  0  0
   -4.1182   -0.7659    0.2283 N   0  0  0  0  0  0  0  0  0  0  0  0
   -1.3634    1.0421    0.3574 C   0  0  0  0  0  0  0  0  0  0  0  0
    0.0348    1.2631    0.1938 C   0  0  0  0  0  0  0  0  0  0  0  0
    0.9233    0.3073   -0.2885 C   0  0  0  0  0  0  0  0  0  0  0  0
    0.4911   -0.9903   -0.6605 C   0  0  0  0  0  0  0  0  0  0  0  0
   -0.8424   -1.3111   -0.5414 C   0  0  0  0  0  0  0  0  0  0  0  0
   -4.0927    3.5005    1.1997 H   0  0  0  0  0  0  0  0  0  0  0  0
    0.4453    2.2381    0.4602 H   0  0  0  0  0  0  0  0  0  0  0  0
    1.9805    0.5486   -0.3887 H   0  0  0  0  0  0  0  0  0  0  0  0
    1.2016   -1.7211   -1.0331 H   0  0  0  0  0  0  0  0  0  0  0  0
   -1.2330   -2.2887   -0.8110 H   0  0  0  0  0  0  0  0  0  0  0  0
   -5.8929    3.1856    0.0842 S   0  0  0  0  0  0  0  0  0  0  0  0
   -4.9459    3.9653    1.1409 O   0  0  0  0  0  0  0  0  0  0  0  0
   -5.5605    1.7769    0.0904 O   0  0  0  0  0  0  0  0  0  0  0  0
   -7.2260    3.7035    0.3038 O   0  0  0  0  0  0  0  0  0  0  0  0
   -5.3452    3.7536   -1.3381 O   0  0  0  0  0  0  0  0  0  0  0  0
   -5.7771    4.6095   -1.5016 H   0  0  0  0  0  0  0  0  0  0  0  0
  1  2  1  0  0  0  0
  1  4  2  0  0  0  0
  2  3  1  0  0  0  0
  5  4  1  0  0  0  0
  5 10  1  0  0  0  0
  6  5  2  0  0  0  0
  7  8  2  0  0  0  0
  7  6  1  0  0  0  0
  8  1  1  0  0  0  0
 11  6  1  0  0  0  0
 12  7  1  0  0  0  0
 13  8  1  0  0  0  0
 14 16  2  0  0  0  0
 14 17  2  0  0  0  0
 14 15  1  0  0  0  0
 15  9  1  0  0  0  0
 18 14  1  0  0  0  0
 19 18  1  0  0  0  0
M  RAD  3   2   2   3   3   4   2
M  END
