Coordinates from ORCA-job PhN2+~HSO4-_B3LYPG-6-31G_dp-CH-Scan-d09-49-n800
 OpenBabel11261919183D

 19 18  0  0  0  0  0  0  0  0999 V2000
   -1.9385   -0.1907   -0.0580 C   0  0  0  0  0  0  0  0  0  0  0  0
   -3.2567   -0.6177    0.0429 N   0  0  0  0  0  0  0  0  0  0  0  0
   -4.3247   -0.9312    0.1351 N   0  0  0  0  0  0  0  0  0  0  0  0
   -1.7405    1.1696    0.2410 C   0  0  0  0  0  0  0  0  0  0  0  0
   -0.3661    1.5019    0.1164 C   0  0  0  0  0  0  0  0  0  0  0  0
    0.6194    0.5899   -0.2508 C   0  0  0  0  0  0  0  0  0  0  0  0
    0.3108   -0.7617   -0.5321 C   0  0  0  0  0  0  0  0  0  0  0  0
   -0.9967   -1.1849   -0.4387 C   0  0  0  0  0  0  0  0  0  0  0  0
   -3.4795    2.7608    0.8188 H   0  0  0  0  0  0  0  0  0  0  0  0
   -0.0554    2.5260    0.3193 H   0  0  0  0  0  0  0  0  0  0  0  0
    1.6558    0.9130   -0.3274 H   0  0  0  0  0  0  0  0  0  0  0  0
    1.0930   -1.4572   -0.8178 H   0  0  0  0  0  0  0  0  0  0  0  0
   -1.2913   -2.2098   -0.6449 H   0  0  0  0  0  0  0  0  0  0  0  0
   -5.4911    3.0068    0.1145 S   0  0  0  0  0  0  0  0  0  0  0  0
   -4.2175    3.3964    0.9994 O   0  0  0  0  0  0  0  0  0  0  0  0
   -5.5674    1.5668   -0.0466 O   0  0  0  0  0  0  0  0  0  0  0  0
   -6.5930    3.8042    0.6139 O   0  0  0  0  0  0  0  0  0  0  0  0
   -5.0810    3.5726   -1.3602 O   0  0  0  0  0  0  0  0  0  0  0  0
   -5.2953    4.5205   -1.3759 H   0  0  0  0  0  0  0  0  0  0  0  0
  1  2  1  0  0  0  0
  1  4  2  0  0  0  0
  2  3  1  0  0  0  0
  5  4  1  0  0  0  0
  5 10  1  0  0  0  0
  6  5  2  0  0  0  0
  7  8  2  0  0  0  0
  7  6  1  0  0  0  0
  8  1  1  0  0  0  0
  9 15  1  0  0  0  0
 11  6  1  0  0  0  0
 12  7  1  0  0  0  0
 13  8  1  0  0  0  0
 14 17  2  0  0  0  0
 14 15  1  0  0  0  0
 16 14  2  0  0  0  0
 18 14  1  0  0  0  0
 19 18  1  0  0  0  0
M  RAD  3   2   2   3   3   4   2
M  END
