Coordinates from ORCA-job PhN2+~HSO4-_B3LYPG-6-31G_dp-CH-Scan-d09-49-n800
 OpenBabel11261919183D

 19 18  0  0  0  0  0  0  0  0999 V2000
   -1.6385   -0.2760   -0.0232 C   0  0  0  0  0  0  0  0  0  0  0  0
   -2.9945   -0.5652    0.1282 N   0  0  0  0  0  0  0  0  0  0  0  0
   -4.0887   -0.7438    0.2777 N   0  0  0  0  0  0  0  0  0  0  0  0
   -1.3108    1.0231    0.3959 C   0  0  0  0  0  0  0  0  0  0  0  0
    0.0875    1.2307    0.2139 C   0  0  0  0  0  0  0  0  0  0  0  0
    0.9568    0.2746   -0.3017 C   0  0  0  0  0  0  0  0  0  0  0  0
    0.5035   -1.0106   -0.6915 C   0  0  0  0  0  0  0  0  0  0  0  0
   -0.8316   -1.3185   -0.5569 C   0  0  0  0  0  0  0  0  0  0  0  0
   -4.1882    3.5896    1.2483 H   0  0  0  0  0  0  0  0  0  0  0  0
    0.5140    2.1955    0.4924 H   0  0  0  0  0  0  0  0  0  0  0  0
    2.0150    0.5058   -0.4149 H   0  0  0  0  0  0  0  0  0  0  0  0
    1.1993   -1.7421   -1.0894 H   0  0  0  0  0  0  0  0  0  0  0  0
   -1.2381   -2.2863   -0.8384 H   0  0  0  0  0  0  0  0  0  0  0  0
   -5.9339    3.2007    0.0703 S   0  0  0  0  0  0  0  0  0  0  0  0
   -5.0549    4.0222    1.1552 O   0  0  0  0  0  0  0  0  0  0  0  0
   -5.5479    1.8063    0.0998 O   0  0  0  0  0  0  0  0  0  0  0  0
   -7.2923    3.6693    0.2388 O   0  0  0  0  0  0  0  0  0  0  0  0
   -5.3566    3.7814   -1.3348 O   0  0  0  0  0  0  0  0  0  0  0  0
   -5.8155    4.6185   -1.5208 H   0  0  0  0  0  0  0  0  0  0  0  0
  1  2  1  0  0  0  0
  1  4  2  0  0  0  0
  2  3  1  0  0  0  0
  5  4  1  0  0  0  0
  5 10  1  0  0  0  0
  6  5  2  0  0  0  0
  7  8  2  0  0  0  0
  7  6  1  0  0  0  0
  8  1  1  0  0  0  0
 11  6  1  0  0  0  0
 12  7  1  0  0  0  0
 13  8  1  0  0  0  0
 14 16  2  0  0  0  0
 14 17  2  0  0  0  0
 14 15  1  0  0  0  0
 15  9  1  0  0  0  0
 18 14  1  0  0  0  0
 19 18  1  0  0  0  0
M  RAD  3   2   2   3   3   4   2
M  END
