Coordinates from ORCA-job PhN2+~HSO4-_B3LYPG-6-31G_dp-CH-Scan-d09-49-n800
 OpenBabel11261919183D

 19 18  0  0  0  0  0  0  0  0999 V2000
   -1.9008   -0.2016   -0.0588 C   0  0  0  0  0  0  0  0  0  0  0  0
   -3.2247   -0.6121    0.0443 N   0  0  0  0  0  0  0  0  0  0  0  0
   -4.2973   -0.9098    0.1404 N   0  0  0  0  0  0  0  0  0  0  0  0
   -1.6890    1.1537    0.2518 C   0  0  0  0  0  0  0  0  0  0  0  0
   -0.3103    1.4704    0.1244 C   0  0  0  0  0  0  0  0  0  0  0  0
    0.6632    0.5506   -0.2549 C   0  0  0  0  0  0  0  0  0  0  0  0
    0.3385   -0.7954   -0.5468 C   0  0  0  0  0  0  0  0  0  0  0  0
   -0.9732   -1.2046   -0.4521 C   0  0  0  0  0  0  0  0  0  0  0  0
   -3.5564    2.8637    0.8729 H   0  0  0  0  0  0  0  0  0  0  0  0
    0.0141    2.4889    0.3348 H   0  0  0  0  0  0  0  0  0  0  0  0
    1.7031    0.8624   -0.3330 H   0  0  0  0  0  0  0  0  0  0  0  0
    1.1119   -1.4970   -0.8414 H   0  0  0  0  0  0  0  0  0  0  0  0
   -1.2804   -2.2244   -0.6657 H   0  0  0  0  0  0  0  0  0  0  0  0
   -5.5527    3.0331    0.1116 S   0  0  0  0  0  0  0  0  0  0  0  0
   -4.3117    3.4774    1.0248 O   0  0  0  0  0  0  0  0  0  0  0  0
   -5.5761    1.5900   -0.0285 O   0  0  0  0  0  0  0  0  0  0  0  0
   -6.6881    3.8034    0.5758 O   0  0  0  0  0  0  0  0  0  0  0  0
   -5.1216    3.5931   -1.3578 O   0  0  0  0  0  0  0  0  0  0  0  0
   -5.3642    4.5337   -1.3929 H   0  0  0  0  0  0  0  0  0  0  0  0
  1  2  1  0  0  0  0
  1  4  2  0  0  0  0
  2  3  1  0  0  0  0
  5  4  1  0  0  0  0
  5 10  1  0  0  0  0
  6  5  2  0  0  0  0
  7  8  2  0  0  0  0
  7  6  1  0  0  0  0
  8  1  1  0  0  0  0
  9 15  1  0  0  0  0
 11  6  1  0  0  0  0
 12  7  1  0  0  0  0
 13  8  1  0  0  0  0
 14 17  2  0  0  0  0
 14 15  1  0  0  0  0
 16 14  2  0  0  0  0
 18 14  1  0  0  0  0
 19 18  1  0  0  0  0
M  RAD  3   2   2   3   3   4   2
M  END
