Coordinates from ORCA-job PhN2+~HSO4-_B3LYPG-6-31G_dp-CH-Scan-d09-49-n800
 OpenBabel11261919183D

 19 18  0  0  0  0  0  0  0  0999 V2000
   -1.6616   -0.2713   -0.0358 C   0  0  0  0  0  0  0  0  0  0  0  0
   -3.0162   -0.5711    0.1033 N   0  0  0  0  0  0  0  0  0  0  0  0
   -4.1102   -0.7596    0.2407 N   0  0  0  0  0  0  0  0  0  0  0  0
   -1.3487    1.0359    0.3706 C   0  0  0  0  0  0  0  0  0  0  0  0
    0.0496    1.2531    0.2021 C   0  0  0  0  0  0  0  0  0  0  0  0
    0.9328    0.2978   -0.2910 C   0  0  0  0  0  0  0  0  0  0  0  0
    0.4946   -0.9958   -0.6701 C   0  0  0  0  0  0  0  0  0  0  0  0
   -0.8394   -1.3130   -0.5470 C   0  0  0  0  0  0  0  0  0  0  0  0
   -4.1155    3.5310    1.2079 H   0  0  0  0  0  0  0  0  0  0  0  0
    0.4647    2.2248    0.4734 H   0  0  0  0  0  0  0  0  0  0  0  0
    1.9903    0.5364   -0.3946 H   0  0  0  0  0  0  0  0  0  0  0  0
    1.2009   -1.7262   -1.0510 H   0  0  0  0  0  0  0  0  0  0  0  0
   -1.2346   -2.2875   -0.8214 H   0  0  0  0  0  0  0  0  0  0  0  0
   -5.9043    3.1897    0.0812 S   0  0  0  0  0  0  0  0  0  0  0  0
   -4.9748    3.9834    1.1435 O   0  0  0  0  0  0  0  0  0  0  0  0
   -5.5557    1.7851    0.0951 O   0  0  0  0  0  0  0  0  0  0  0  0
   -7.2448    3.6932    0.2881 O   0  0  0  0  0  0  0  0  0  0  0  0
   -5.3509    3.7598   -1.3380 O   0  0  0  0  0  0  0  0  0  0  0  0
   -5.7917    4.6098   -1.5082 H   0  0  0  0  0  0  0  0  0  0  0  0
  1  2  1  0  0  0  0
  1  4  2  0  0  0  0
  2  3  1  0  0  0  0
  5  4  1  0  0  0  0
  5 10  1  0  0  0  0
  6  5  2  0  0  0  0
  7  8  2  0  0  0  0
  7  6  1  0  0  0  0
  8  1  1  0  0  0  0
 11  6  1  0  0  0  0
 12  7  1  0  0  0  0
 13  8  1  0  0  0  0
 14 16  2  0  0  0  0
 14 17  2  0  0  0  0
 14 15  1  0  0  0  0
 15  9  1  0  0  0  0
 18 14  1  0  0  0  0
 19 18  1  0  0  0  0
M  RAD  3   2   2   3   3   4   2
M  END
