Coordinates from ORCA-job PhN2+~HSO4-_B3LYPG-6-31G_dp-CH-Scan-d09-49-n800
 OpenBabel11261919183D

 19 18  0  0  0  0  0  0  0  0999 V2000
   -1.8205   -0.2265   -0.0503 C   0  0  0  0  0  0  0  0  0  0  0  0
   -3.1552   -0.6020    0.0667 N   0  0  0  0  0  0  0  0  0  0  0  0
   -4.2356   -0.8660    0.1785 N   0  0  0  0  0  0  0  0  0  0  0  0
   -1.5772    1.1145    0.2945 C   0  0  0  0  0  0  0  0  0  0  0  0
   -0.1911    1.3993    0.1501 C   0  0  0  0  0  0  0  0  0  0  0  0
    0.7532    0.4679   -0.2713 C   0  0  0  0  0  0  0  0  0  0  0  0
    0.3918   -0.8628   -0.5936 C   0  0  0  0  0  0  0  0  0  0  0  0
   -0.9272   -1.2433   -0.4868 C   0  0  0  0  0  0  0  0  0  0  0  0
   -3.7437    3.0943    1.0178 H   0  0  0  0  0  0  0  0  0  0  0  0
    0.1635    2.4038    0.3815 H   0  0  0  0  0  0  0  0  0  0  0  0
    1.7990    0.7569   -0.3603 H   0  0  0  0  0  0  0  0  0  0  0  0
    1.1437   -1.5737   -0.9201 H   0  0  0  0  0  0  0  0  0  0  0  0
   -1.2633   -2.2494   -0.7216 H   0  0  0  0  0  0  0  0  0  0  0  0
   -5.6768    3.0869    0.0983 S   0  0  0  0  0  0  0  0  0  0  0  0
   -4.5383    3.6598    1.0845 O   0  0  0  0  0  0  0  0  0  0  0  0
   -5.5741    1.6442    0.0157 O   0  0  0  0  0  0  0  0  0  0  0  0
   -6.8939    3.7835    0.4581 O   0  0  0  0  0  0  0  0  0  0  0  0
   -5.1800    3.6352   -1.3522 O   0  0  0  0  0  0  0  0  0  0  0  0
   -5.4898    4.5525   -1.4406 H   0  0  0  0  0  0  0  0  0  0  0  0
  1  2  1  0  0  0  0
  1  4  2  0  0  0  0
  2  3  1  0  0  0  0
  5  4  1  0  0  0  0
  5 10  1  0  0  0  0
  6  5  2  0  0  0  0
  7  8  2  0  0  0  0
  7  6  1  0  0  0  0
  8  1  1  0  0  0  0
  9 15  1  0  0  0  0
 11  6  1  0  0  0  0
 12  7  1  0  0  0  0
 13  8  1  0  0  0  0
 14 17  2  0  0  0  0
 14 15  1  0  0  0  0
 16 14  2  0  0  0  0
 18 14  1  0  0  0  0
 19 18  1  0  0  0  0
M  RAD  3   2   2   3   3   4   2
M  END
