Coordinates from ORCA-job PhN2+~HSO4-_B3LYPG-6-31G_dp-CH-Scan-d09-49-n800
 OpenBabel11261919183D

 19 18  0  0  0  0  0  0  0  0999 V2000
   -1.9910    0.3315   -0.0458 C   0  0  0  0  0  0  0  0  0  0  0  0
   -3.3831    0.1882   -0.0153 N   0  0  0  0  0  0  0  0  0  0  0  0
   -4.3926   -0.3052   -0.0116 N   0  0  0  0  0  0  0  0  0  0  0  0
   -1.3943    1.5392    0.3292 C   0  0  0  0  0  0  0  0  0  0  0  0
   -0.0034    1.5999    0.3120 C   0  0  0  0  0  0  0  0  0  0  0  0
    0.7514    0.4904   -0.0776 C   0  0  0  0  0  0  0  0  0  0  0  0
    0.1276   -0.7060   -0.4537 C   0  0  0  0  0  0  0  0  0  0  0  0
   -1.2573   -0.8029   -0.4374 C   0  0  0  0  0  0  0  0  0  0  0  0
   -2.0549    2.4029    0.5989 H   0  0  0  0  0  0  0  0  0  0  0  0
    0.4903    2.5223    0.5983 H   0  0  0  0  0  0  0  0  0  0  0  0
    1.8354    0.5553   -0.0920 H   0  0  0  0  0  0  0  0  0  0  0  0
    0.7204   -1.5625   -0.7566 H   0  0  0  0  0  0  0  0  0  0  0  0
   -1.7680   -1.7171   -0.7190 H   0  0  0  0  0  0  0  0  0  0  0  0
   -5.4209    2.6954    0.0399 S   0  0  0  0  0  0  0  0  0  0  0  0
   -3.9356    2.5994   -0.0922 O   0  0  0  0  0  0  0  0  0  0  0  0
   -6.0126    1.3455    0.2539 O   0  0  0  0  0  0  0  0  0  0  0  0
   -5.9121    3.7539    0.9263 O   0  0  0  0  0  0  0  0  0  0  0  0
   -5.9043    3.1515   -1.4780 O   0  0  0  0  0  0  0  0  0  0  0  0
   -6.5105    3.8937   -1.3306 H   0  0  0  0  0  0  0  0  0  0  0  0
  1  2  1  0  0  0  0
  1  4  2  0  0  0  0
  2  3  1  0  0  0  0
  4  9  1  0  0  0  0
  5  4  1  0  0  0  0
  5 10  1  0  0  0  0
  6  5  2  0  0  0  0
  7  8  2  0  0  0  0
  7  6  1  0  0  0  0
  8  1  1  0  0  0  0
 11  6  1  0  0  0  0
 12  7  1  0  0  0  0
 13  8  1  0  0  0  0
 14 16  2  0  0  0  0
 14 17  1  0  0  0  0
 15 14  2  0  0  0  0
 18 19  1  0  0  0  0
 18 14  1  0  0  0  0
M  RAD  3   2   2   3   3  17   2
M  END
