Coordinates from ORCA-job PhN2+~HSO4-_B3LYPG-6-31G_dp-CH-Scan-d09-49-n800
 OpenBabel11261919183D

 19 18  0  0  0  0  0  0  0  0999 V2000
   -2.0574   -0.1597    0.0102 C   0  0  0  0  0  0  0  0  0  0  0  0
   -3.3505   -0.6381    0.1639 N   0  0  0  0  0  0  0  0  0  0  0  0
   -4.3995   -0.9938    0.2978 N   0  0  0  0  0  0  0  0  0  0  0  0
   -1.8904    1.2169    0.2523 C   0  0  0  0  0  0  0  0  0  0  0  0
   -0.5387    1.5987    0.0788 C   0  0  0  0  0  0  0  0  0  0  0  0
    0.4704    0.7096   -0.2837 C   0  0  0  0  0  0  0  0  0  0  0  0
    0.2033   -0.6593   -0.5065 C   0  0  0  0  0  0  0  0  0  0  0  0
   -1.0854   -1.1258   -0.3604 C   0  0  0  0  0  0  0  0  0  0  0  0
   -3.2416    2.3986    0.6835 H   0  0  0  0  0  0  0  0  0  0  0  0
   -0.2683    2.6411    0.2365 H   0  0  0  0  0  0  0  0  0  0  0  0
    1.4907    1.0679   -0.4012 H   0  0  0  0  0  0  0  0  0  0  0  0
    1.0013   -1.3375   -0.7895 H   0  0  0  0  0  0  0  0  0  0  0  0
   -1.3465   -2.1674   -0.5217 H   0  0  0  0  0  0  0  0  0  0  0  0
   -5.2622    2.8918    0.0268 S   0  0  0  0  0  0  0  0  0  0  0  0
   -3.9871    3.0844    0.9318 O   0  0  0  0  0  0  0  0  0  0  0  0
   -5.3717    1.5043   -0.4024 O   0  0  0  0  0  0  0  0  0  0  0  0
   -6.3696    3.5903    0.6558 O   0  0  0  0  0  0  0  0  0  0  0  0
   -4.8763    3.7147   -1.3364 O   0  0  0  0  0  0  0  0  0  0  0  0
   -5.1360    4.6388   -1.1871 H   0  0  0  0  0  0  0  0  0  0  0  0
  1  2  1  0  0  0  0
  1  4  2  0  0  0  0
  2  3  1  0  0  0  0
  5 10  1  0  0  0  0
  5  4  1  0  0  0  0
  6  5  2  0  0  0  0
  7  8  2  0  0  0  0
  7  6  1  0  0  0  0
  8  1  1  0  0  0  0
  9 15  1  0  0  0  0
 11  6  1  0  0  0  0
 12  7  1  0  0  0  0
 13  8  1  0  0  0  0
 14 17  2  0  0  0  0
 14 15  1  0  0  0  0
 16 14  2  0  0  0  0
 18 19  1  0  0  0  0
 18 14  1  0  0  0  0
M  RAD  3   2   2   3   3   4   2
M  END
