Coordinates from ORCA-job PhN2+~HSO4-_B3LYPG-6-31G_dp-CH-Scan-d09-49-n800
 OpenBabel11261919183D

 19 18  0  0  0  0  0  0  0  0999 V2000
   -2.0143    0.1198   -0.4215 C   0  0  0  0  0  0  0  0  0  0  0  0
   -3.3535   -0.0633   -0.7535 N   0  0  0  0  0  0  0  0  0  0  0  0
   -4.4710    0.0651   -0.8231 N   0  0  0  0  0  0  0  0  0  0  0  0
   -1.5966    1.4178   -0.0929 C   0  0  0  0  0  0  0  0  0  0  0  0
   -0.2524    1.5735    0.2375 C   0  0  0  0  0  0  0  0  0  0  0  0
    0.6141    0.4765    0.2394 C   0  0  0  0  0  0  0  0  0  0  0  0
    0.1615   -0.8058   -0.1037 C   0  0  0  0  0  0  0  0  0  0  0  0
   -1.1674   -1.0003   -0.4522 C   0  0  0  0  0  0  0  0  0  0  0  0
   -2.4123    2.3372   -0.1504 H   0  0  0  0  0  0  0  0  0  0  0  0
    0.1173    2.5600    0.4966 H   0  0  0  0  0  0  0  0  0  0  0  0
    1.6571    0.6181    0.5065 H   0  0  0  0  0  0  0  0  0  0  0  0
    0.8462   -1.6469   -0.1020 H   0  0  0  0  0  0  0  0  0  0  0  0
   -1.5517   -1.9762   -0.7273 H   0  0  0  0  0  0  0  0  0  0  0  0
   -5.0461    3.0221    0.1448 S   0  0  0  0  0  0  0  0  0  0  0  0
   -3.8094    3.3438   -0.6098 O   0  0  0  0  0  0  0  0  0  0  0  0
   -5.0200    1.6027    0.6575 O   0  0  0  0  0  0  0  0  0  0  0  0
   -5.4991    3.9844    1.1519 O   0  0  0  0  0  0  0  0  0  0  0  0
   -6.2003    3.0296   -1.0426 O   0  0  0  0  0  0  0  0  0  0  0  0
   -7.0177    3.3173   -0.6065 H   0  0  0  0  0  0  0  0  0  0  0  0
  1  4  1  0  0  0  0
  2  1  1  0  0  0  0
  3  2  1  0  0  0  0
  4  5  2  0  0  0  0
  5  6  1  0  0  0  0
  5 10  1  0  0  0  0
  6 11  1  0  0  0  0
  7 12  1  0  0  0  0
  7  6  2  0  0  0  0
  8  1  2  0  0  0  0
  8  7  1  0  0  0  0
  9  4  1  0  0  0  0
 13  8  1  0  0  0  0
 14 16  2  0  0  0  0
 14 17  1  0  0  0  0
 15 14  2  0  0  0  0
 18 19  1  0  0  0  0
 18 14  1  0  0  0  0
M  RAD  3   2   2   3   3  17   2
M  END
