Coordinates from ORCA-job PhN2+~HSO4-_B3LYPG-6-31G_dp-CH-Scan-d09-49-n800
 OpenBabel11261919183D

 19 18  0  0  0  0  0  0  0  0999 V2000
   -1.6184   -0.2803   -0.0085 C   0  0  0  0  0  0  0  0  0  0  0  0
   -2.9751   -0.5601    0.1567 N   0  0  0  0  0  0  0  0  0  0  0  0
   -4.0690   -0.7294    0.3187 N   0  0  0  0  0  0  0  0  0  0  0  0
   -1.2766    1.0104    0.4247 C   0  0  0  0  0  0  0  0  0  0  0  0
    0.1209    1.2107    0.2276 C   0  0  0  0  0  0  0  0  0  0  0  0
    0.9765    0.2558   -0.3123 C   0  0  0  0  0  0  0  0  0  0  0  0
    0.5090   -1.0208   -0.7141 C   0  0  0  0  0  0  0  0  0  0  0  0
   -0.8264   -1.3212   -0.5667 C   0  0  0  0  0  0  0  0  0  0  0  0
   -4.2532    3.6333    1.2822 H   0  0  0  0  0  0  0  0  0  0  0  0
    0.5578    2.1686    0.5141 H   0  0  0  0  0  0  0  0  0  0  0  0
    2.0348    0.4811   -0.4361 H   0  0  0  0  0  0  0  0  0  0  0  0
    1.1947   -1.7515   -1.1308 H   0  0  0  0  0  0  0  0  0  0  0  0
   -1.2434   -2.2822   -0.8561 H   0  0  0  0  0  0  0  0  0  0  0  0
   -5.9590    3.2100    0.0588 S   0  0  0  0  0  0  0  0  0  0  0  0
   -5.1233    4.0524    1.1626 O   0  0  0  0  0  0  0  0  0  0  0  0
   -5.5447    1.8242    0.1039 O   0  0  0  0  0  0  0  0  0  0  0  0
   -7.3302    3.6516    0.1920 O   0  0  0  0  0  0  0  0  0  0  0  0
   -5.3589    3.7983   -1.3333 O   0  0  0  0  0  0  0  0  0  0  0  0
   -5.8310    4.6244   -1.5346 H   0  0  0  0  0  0  0  0  0  0  0  0
  1  2  1  0  0  0  0
  1  4  2  0  0  0  0
  2  3  1  0  0  0  0
  5  4  1  0  0  0  0
  5 10  1  0  0  0  0
  6  5  2  0  0  0  0
  7  8  2  0  0  0  0
  7  6  1  0  0  0  0
  8  1  1  0  0  0  0
 11  6  1  0  0  0  0
 12  7  1  0  0  0  0
 13  8  1  0  0  0  0
 14 16  2  0  0  0  0
 14 17  2  0  0  0  0
 14 15  1  0  0  0  0
 15  9  1  0  0  0  0
 18 14  1  0  0  0  0
 19 18  1  0  0  0  0
M  RAD  3   2   2   3   3   4   2
M  END
