Coordinates from ORCA-job PhN2+~HSO4-_B3LYPG-6-31G_dp-CH-Scan-d09-49-n800
 OpenBabel11261919183D

 19 18  0  0  0  0  0  0  0  0999 V2000
   -2.0675   -0.0316   -0.3371 C   0  0  0  0  0  0  0  0  0  0  0  0
   -3.3854   -0.4020   -0.5555 N   0  0  0  0  0  0  0  0  0  0  0  0
   -4.4548   -0.6680   -0.7235 N   0  0  0  0  0  0  0  0  0  0  0  0
   -1.8318    1.3314   -0.0820 C   0  0  0  0  0  0  0  0  0  0  0  0
   -0.4650    1.6056    0.1219 C   0  0  0  0  0  0  0  0  0  0  0  0
    0.5213    0.6223    0.0714 C   0  0  0  0  0  0  0  0  0  0  0  0
    0.2015   -0.7253   -0.1927 C   0  0  0  0  0  0  0  0  0  0  0  0
   -1.1150   -1.0790   -0.4052 C   0  0  0  0  0  0  0  0  0  0  0  0
   -2.8920    2.4317    0.0118 H   0  0  0  0  0  0  0  0  0  0  0  0
   -0.1684    2.6306    0.3312 H   0  0  0  0  0  0  0  0  0  0  0  0
    1.5612    0.8916    0.2389 H   0  0  0  0  0  0  0  0  0  0  0  0
    0.9802   -1.4795   -0.2289 H   0  0  0  0  0  0  0  0  0  0  0  0
   -1.4122   -2.1022   -0.6125 H   0  0  0  0  0  0  0  0  0  0  0  0
   -5.0862    2.9591    0.3387 S   0  0  0  0  0  0  0  0  0  0  0  0
   -3.6077    3.3485    0.1082 O   0  0  0  0  0  0  0  0  0  0  0  0
   -5.1989    1.5229    0.6048 O   0  0  0  0  0  0  0  0  0  0  0  0
   -5.7485    3.9219    1.2091 O   0  0  0  0  0  0  0  0  0  0  0  0
   -5.7606    3.1420   -1.1554 O   0  0  0  0  0  0  0  0  0  0  0  0
   -6.0858    4.0555   -1.1947 H   0  0  0  0  0  0  0  0  0  0  0  0
  1  4  1  0  0  0  0
  2  1  1  0  0  0  0
  3  2  1  0  0  0  0
  4  5  2  0  0  0  0
  5 10  1  0  0  0  0
  6  5  1  0  0  0  0
  6 11  1  0  0  0  0
  7  6  2  0  0  0  0
  8  1  2  0  0  0  0
  8  7  1  0  0  0  0
  9 15  1  0  0  0  0
 12  7  1  0  0  0  0
 13  8  1  0  0  0  0
 14 16  2  0  0  0  0
 14 17  2  0  0  0  0
 15 14  1  0  0  0  0
 18 14  1  0  0  0  0
 19 18  1  0  0  0  0
M  RAD  3   2   2   3   3   4   2
M  END
