Coordinates from ORCA-job PhN2+~HSO4-_B3LYPG-6-31G_dp-CH-Scan-d09-49-n800
 OpenBabel11261919183D

 19 18  0  0  0  0  0  0  0  0999 V2000
   -1.7401   -0.2720    0.8403 C   0  0  0  0  0  0  0  0  0  0  0  0
   -2.8556   -0.9212    1.3776 N   0  0  0  0  0  0  0  0  0  0  0  0
   -3.6997   -1.4576    1.8775 N   0  0  0  0  0  0  0  0  0  0  0  0
   -0.6223   -0.3649    1.6808 C   0  0  0  0  0  0  0  0  0  0  0  0
    0.4611    0.3548    1.0876 C   0  0  0  0  0  0  0  0  0  0  0  0
    0.3756    1.0358   -0.1210 C   0  0  0  0  0  0  0  0  0  0  0  0
   -0.8155    1.0335   -0.8953 C   0  0  0  0  0  0  0  0  0  0  0  0
   -1.9213    0.3576   -0.4226 C   0  0  0  0  0  0  0  0  0  0  0  0
   -3.0410    2.8719   -0.5063 H   0  0  0  0  0  0  0  0  0  0  0  0
    1.4182    0.3812    1.6104 H   0  0  0  0  0  0  0  0  0  0  0  0
    1.2401    1.5752   -0.5046 H   0  0  0  0  0  0  0  0  0  0  0  0
   -0.8408    1.5266   -1.8625 H   0  0  0  0  0  0  0  0  0  0  0  0
   -2.8504    0.2823   -0.9801 H   0  0  0  0  0  0  0  0  0  0  0  0
   -5.1654    2.5713   -0.5008 S   0  0  0  0  0  0  0  0  0  0  0  0
   -3.8155    3.4581   -0.5992 O   0  0  0  0  0  0  0  0  0  0  0  0
   -4.9205    1.4191    0.3431 O   0  0  0  0  0  0  0  0  0  0  0  0
   -6.2421    3.5132   -0.2954 O   0  0  0  0  0  0  0  0  0  0  0  0
   -5.2738    1.9713   -2.0107 O   0  0  0  0  0  0  0  0  0  0  0  0
   -5.7066    2.6390   -2.5702 H   0  0  0  0  0  0  0  0  0  0  0  0
  1  2  1  0  0  0  0
  1  4  2  0  0  0  0
  2  3  1  0  0  0  0
  5 10  1  0  0  0  0
  5  4  1  0  0  0  0
  6  5  2  0  0  0  0
  7  8  2  0  0  0  0
  7  6  1  0  0  0  0
  8  1  1  0  0  0  0
 11  6  1  0  0  0  0
 12  7  1  0  0  0  0
 13  8  1  0  0  0  0
 14 17  2  0  0  0  0
 14 16  2  0  0  0  0
 15  9  1  0  0  0  0
 15 14  1  0  0  0  0
 18 14  1  0  0  0  0
 19 18  1  0  0  0  0
M  RAD  3   2   2   3   3   4   2
M  END
