Coordinates from ORCA-job PhN2+~HSO4-_B3LYPG-6-31G_dp-CH-Scan-d09-49-n800
 OpenBabel11261919183D

 19 18  0  0  0  0  0  0  0  0999 V2000
   -1.6699   -0.2691   -0.0401 C   0  0  0  0  0  0  0  0  0  0  0  0
   -3.0238   -0.5729    0.0960 N   0  0  0  0  0  0  0  0  0  0  0  0
   -4.1175   -0.7650    0.2304 N   0  0  0  0  0  0  0  0  0  0  0  0
   -1.3623    1.0416    0.3594 C   0  0  0  0  0  0  0  0  0  0  0  0
    0.0359    1.2622    0.1947 C   0  0  0  0  0  0  0  0  0  0  0  0
    0.9238    0.3067   -0.2892 C   0  0  0  0  0  0  0  0  0  0  0  0
    0.4911   -0.9905   -0.6619 C   0  0  0  0  0  0  0  0  0  0  0  0
   -0.8424   -1.3112   -0.5420 C   0  0  0  0  0  0  0  0  0  0  0  0
   -4.0954    3.5032    1.2020 H   0  0  0  0  0  0  0  0  0  0  0  0
    0.4468    2.2369    0.4615 H   0  0  0  0  0  0  0  0  0  0  0  0
    1.9809    0.5479   -0.3902 H   0  0  0  0  0  0  0  0  0  0  0  0
    1.2011   -1.7211   -1.0358 H   0  0  0  0  0  0  0  0  0  0  0  0
   -1.2335   -2.2885   -0.8120 H   0  0  0  0  0  0  0  0  0  0  0  0
   -5.8934    3.1857    0.0835 S   0  0  0  0  0  0  0  0  0  0  0  0
   -4.9492    3.9668    1.1416 O   0  0  0  0  0  0  0  0  0  0  0  0
   -5.5590    1.7777    0.0910 O   0  0  0  0  0  0  0  0  0  0  0  0
   -7.2276    3.7018    0.3004 O   0  0  0  0  0  0  0  0  0  0  0  0
   -5.3440    3.7541   -1.3379 O   0  0  0  0  0  0  0  0  0  0  0  0
   -5.7772    4.6091   -1.5026 H   0  0  0  0  0  0  0  0  0  0  0  0
  1  2  1  0  0  0  0
  1  4  2  0  0  0  0
  2  3  1  0  0  0  0
  5  4  1  0  0  0  0
  5 10  1  0  0  0  0
  6  5  2  0  0  0  0
  7  8  2  0  0  0  0
  7  6  1  0  0  0  0
  8  1  1  0  0  0  0
 11  6  1  0  0  0  0
 12  7  1  0  0  0  0
 13  8  1  0  0  0  0
 14 16  2  0  0  0  0
 14 17  2  0  0  0  0
 14 15  1  0  0  0  0
 15  9  1  0  0  0  0
 18 14  1  0  0  0  0
 19 18  1  0  0  0  0
M  RAD  3   2   2   3   3   4   2
M  END
