Coordinates from ORCA-job PhN2+~HSO4-_B3LYPG-6-31G_dp-CH-Scan-d09-49-n800
 OpenBabel11261919183D

 19 18  0  0  0  0  0  0  0  0999 V2000
   -2.0554   -0.1604    0.0091 C   0  0  0  0  0  0  0  0  0  0  0  0
   -3.3488   -0.6382    0.1620 N   0  0  0  0  0  0  0  0  0  0  0  0
   -4.3981   -0.9934    0.2952 N   0  0  0  0  0  0  0  0  0  0  0  0
   -1.8883    1.2161    0.2519 C   0  0  0  0  0  0  0  0  0  0  0  0
   -0.5363    1.5972    0.0790 C   0  0  0  0  0  0  0  0  0  0  0  0
    0.4727    0.7080   -0.2833 C   0  0  0  0  0  0  0  0  0  0  0  0
    0.2052   -0.6608   -0.5069 C   0  0  0  0  0  0  0  0  0  0  0  0
   -1.0837   -1.1269   -0.3615 C   0  0  0  0  0  0  0  0  0  0  0  0
   -3.2466    2.4044    0.6859 H   0  0  0  0  0  0  0  0  0  0  0  0
   -0.2653    2.6394    0.2373 H   0  0  0  0  0  0  0  0  0  0  0  0
    1.4932    1.0659   -0.4002 H   0  0  0  0  0  0  0  0  0  0  0  0
    1.0031   -1.3392   -0.7898 H   0  0  0  0  0  0  0  0  0  0  0  0
   -1.3452   -2.1683   -0.5233 H   0  0  0  0  0  0  0  0  0  0  0  0
   -5.2663    2.8937    0.0283 S   0  0  0  0  0  0  0  0  0  0  0  0
   -3.9911    3.0884    0.9337 O   0  0  0  0  0  0  0  0  0  0  0  0
   -5.3765    1.5050   -0.3967 O   0  0  0  0  0  0  0  0  0  0  0  0
   -6.3728    3.5950    0.6554 O   0  0  0  0  0  0  0  0  0  0  0  0
   -4.8790    3.7121   -1.3370 O   0  0  0  0  0  0  0  0  0  0  0  0
   -5.1362    4.6373   -1.1901 H   0  0  0  0  0  0  0  0  0  0  0  0
  1  2  1  0  0  0  0
  1  4  2  0  0  0  0
  2  3  1  0  0  0  0
  5 10  1  0  0  0  0
  5  4  1  0  0  0  0
  6  5  2  0  0  0  0
  7  8  2  0  0  0  0
  7  6  1  0  0  0  0
  8  1  1  0  0  0  0
  9 15  1  0  0  0  0
 11  6  1  0  0  0  0
 12  7  1  0  0  0  0
 13  8  1  0  0  0  0
 14 17  2  0  0  0  0
 14 15  1  0  0  0  0
 16 14  2  0  0  0  0
 18 19  1  0  0  0  0
 18 14  1  0  0  0  0
M  RAD  3   2   2   3   3   4   2
M  END
