Coordinates from ORCA-job PhN2+~HSO4-_B3LYPG-6-31G_dp-CH-Scan-d09-49-n800
 OpenBabel11261919183D

 19 18  0  0  0  0  0  0  0  0999 V2000
   -1.5810   -0.2847    0.0185 C   0  0  0  0  0  0  0  0  0  0  0  0
   -2.9388   -0.5458    0.2067 N   0  0  0  0  0  0  0  0  0  0  0  0
   -4.0319   -0.6983    0.3909 N   0  0  0  0  0  0  0  0  0  0  0  0
   -1.2098    0.9869    0.4816 C   0  0  0  0  0  0  0  0  0  0  0  0
    0.1864    1.1711    0.2600 C   0  0  0  0  0  0  0  0  0  0  0  0
    1.0144    0.2195   -0.3269 C   0  0  0  0  0  0  0  0  0  0  0  0
    0.5176   -1.0372   -0.7555 C   0  0  0  0  0  0  0  0  0  0  0  0
   -0.8190   -1.3212   -0.5874 C   0  0  0  0  0  0  0  0  0  0  0  0
   -4.3617    3.7094    1.3237 H   0  0  0  0  0  0  0  0  0  0  0  0
    0.6449    2.1132    0.5647 H   0  0  0  0  0  0  0  0  0  0  0  0
    2.0732    0.4318   -0.4678 H   0  0  0  0  0  0  0  0  0  0  0  0
    1.1823   -1.7659   -1.2082 H   0  0  0  0  0  0  0  0  0  0  0  0
   -1.2576   -2.2668   -0.8949 H   0  0  0  0  0  0  0  0  0  0  0  0
   -6.0060    3.2259    0.0401 S   0  0  0  0  0  0  0  0  0  0  0  0
   -5.2363    4.1050    1.1643 O   0  0  0  0  0  0  0  0  0  0  0  0
   -5.5456    1.8559    0.1126 O   0  0  0  0  0  0  0  0  0  0  0  0
   -7.3950    3.6216    0.1232 O   0  0  0  0  0  0  0  0  0  0  0  0
   -5.3791    3.8238   -1.3356 O   0  0  0  0  0  0  0  0  0  0  0  0
   -5.8725    4.6310   -1.5611 H   0  0  0  0  0  0  0  0  0  0  0  0
  1  2  1  0  0  0  0
  1  4  2  0  0  0  0
  2  3  1  0  0  0  0
  5  4  1  0  0  0  0
  5 10  1  0  0  0  0
  6  5  2  0  0  0  0
  7  8  2  0  0  0  0
  7  6  1  0  0  0  0
  8  1  1  0  0  0  0
 11  6  1  0  0  0  0
 12  7  1  0  0  0  0
 13  8  1  0  0  0  0
 14 16  2  0  0  0  0
 14 17  2  0  0  0  0
 14 15  1  0  0  0  0
 15  9  1  0  0  0  0
 18 14  1  0  0  0  0
 19 18  1  0  0  0  0
M  RAD  3   2   2   3   3   4   2
M  END
