Coordinates from ORCA-job PhN2+~HSO4-_B3LYPG-6-31G_dp-CH-Scan-d09-49-n800
 OpenBabel11261919183D

 19 18  0  0  0  0  0  0  0  0999 V2000
   -1.7051   -0.2426    0.8523 C   0  0  0  0  0  0  0  0  0  0  0  0
   -2.8466   -0.8424    1.3923 N   0  0  0  0  0  0  0  0  0  0  0  0
   -3.7114   -1.3436    1.8936 N   0  0  0  0  0  0  0  0  0  0  0  0
   -0.5882   -0.3972    1.6850 C   0  0  0  0  0  0  0  0  0  0  0  0
    0.5277    0.2644    1.0864 C   0  0  0  0  0  0  0  0  0  0  0  0
    0.4714    0.9478   -0.1229 C   0  0  0  0  0  0  0  0  0  0  0  0
   -0.7240    1.0152   -0.8861 C   0  0  0  0  0  0  0  0  0  0  0  0
   -1.8621    0.4028   -0.4057 C   0  0  0  0  0  0  0  0  0  0  0  0
   -3.1813    3.0424   -0.4664 H   0  0  0  0  0  0  0  0  0  0  0  0
    1.4882    0.2400    1.6034 H   0  0  0  0  0  0  0  0  0  0  0  0
    1.3621    1.4375   -0.5135 H   0  0  0  0  0  0  0  0  0  0  0  0
   -0.7316    1.5182   -1.8483 H   0  0  0  0  0  0  0  0  0  0  0  0
   -2.8003    0.3856   -0.9525 H   0  0  0  0  0  0  0  0  0  0  0  0
   -5.2694    2.5574   -0.5247 S   0  0  0  0  0  0  0  0  0  0  0  0
   -3.9991    3.5612   -0.5738 O   0  0  0  0  0  0  0  0  0  0  0  0
   -4.9354    1.4100    0.2952 O   0  0  0  0  0  0  0  0  0  0  0  0
   -6.4272    3.3960   -0.3154 O   0  0  0  0  0  0  0  0  0  0  0  0
   -5.2989    1.9919   -2.0500 O   0  0  0  0  0  0  0  0  0  0  0  0
   -5.7844    2.6307   -2.6001 H   0  0  0  0  0  0  0  0  0  0  0  0
  1  2  1  0  0  0  0
  1  4  2  0  0  0  0
  2  3  1  0  0  0  0
  5 10  1  0  0  0  0
  5  4  1  0  0  0  0
  6  5  2  0  0  0  0
  7  8  2  0  0  0  0
  7  6  1  0  0  0  0
  8  1  1  0  0  0  0
 11  6  1  0  0  0  0
 12  7  1  0  0  0  0
 13  8  1  0  0  0  0
 14 17  2  0  0  0  0
 14 16  2  0  0  0  0
 15 14  1  0  0  0  0
 15  9  1  0  0  0  0
 18 14  1  0  0  0  0
 19 18  1  0  0  0  0
M  RAD  3   2   2   3   3   4   2
M  END
