Coordinates from ORCA-job PhN2+~HSO4-_B3LYPG-6-31G_dp-CH-Scan-d09-49-n800
 OpenBabel11261919183D

 19 18  0  0  0  0  0  0  0  0999 V2000
   -2.0084    0.3400   -0.0083 C   0  0  0  0  0  0  0  0  0  0  0  0
   -3.3995    0.1883    0.0509 N   0  0  0  0  0  0  0  0  0  0  0  0
   -4.3995   -0.3231    0.0804 N   0  0  0  0  0  0  0  0  0  0  0  0
   -1.4111    1.5422    0.3849 C   0  0  0  0  0  0  0  0  0  0  0  0
   -0.0202    1.6069    0.3347 C   0  0  0  0  0  0  0  0  0  0  0  0
    0.7314    0.5145   -0.1050 C   0  0  0  0  0  0  0  0  0  0  0  0
    0.1041   -0.6740   -0.4980 C   0  0  0  0  0  0  0  0  0  0  0  0
   -1.2798   -0.7787   -0.4485 C   0  0  0  0  0  0  0  0  0  0  0  0
   -1.9866    2.3089    0.6700 H   0  0  0  0  0  0  0  0  0  0  0  0
    0.4753    2.5242    0.6349 H   0  0  0  0  0  0  0  0  0  0  0  0
    1.8140    0.5868   -0.1453 H   0  0  0  0  0  0  0  0  0  0  0  0
    0.6926   -1.5189   -0.8398 H   0  0  0  0  0  0  0  0  0  0  0  0
   -1.7933   -1.6872   -0.7426 H   0  0  0  0  0  0  0  0  0  0  0  0
   -5.4104    2.6829    0.0281 S   0  0  0  0  0  0  0  0  0  0  0  0
   -3.9225    2.5609   -0.0594 O   0  0  0  0  0  0  0  0  0  0  0  0
   -6.0283    1.3499    0.2645 O   0  0  0  0  0  0  0  0  0  0  0  0
   -5.9042    3.7767    0.8687 O   0  0  0  0  0  0  0  0  0  0  0  0
   -5.8469    3.1012   -1.5150 O   0  0  0  0  0  0  0  0  0  0  0  0
   -6.4223    3.8739   -1.4065 H   0  0  0  0  0  0  0  0  0  0  0  0
  1  2  1  0  0  0  0
  1  4  2  0  0  0  0
  2  3  1  0  0  0  0
  4  9  1  0  0  0  0
  5  4  1  0  0  0  0
  5 10  1  0  0  0  0
  6  5  2  0  0  0  0
  7  8  2  0  0  0  0
  7  6  1  0  0  0  0
  8  1  1  0  0  0  0
 11  6  1  0  0  0  0
 12  7  1  0  0  0  0
 13  8  1  0  0  0  0
 14 16  2  0  0  0  0
 14 17  1  0  0  0  0
 15 14  2  0  0  0  0
 18 19  1  0  0  0  0
 18 14  1  0  0  0  0
M  RAD  3   2   2   3   3  17   2
M  END
