Coordinates from ORCA-job PhN2+~HSO4-_B3LYPG-6-31G_dp-CH-Scan-d09-49-n800
 OpenBabel11261919183D

 19 18  0  0  0  0  0  0  0  0999 V2000
   -1.6023   -0.2823    0.0008 C   0  0  0  0  0  0  0  0  0  0  0  0
   -2.9598   -0.5543    0.1740 N   0  0  0  0  0  0  0  0  0  0  0  0
   -4.0535   -0.7170    0.3446 N   0  0  0  0  0  0  0  0  0  0  0  0
   -1.2489    1.0014    0.4447 C   0  0  0  0  0  0  0  0  0  0  0  0
    0.1484    1.1945    0.2390 C   0  0  0  0  0  0  0  0  0  0  0  0
    0.9934    0.2398   -0.3177 C   0  0  0  0  0  0  0  0  0  0  0  0
    0.5144   -1.0294   -0.7291 C   0  0  0  0  0  0  0  0  0  0  0  0
   -0.8218   -1.3226   -0.5745 C   0  0  0  0  0  0  0  0  0  0  0  0
   -4.2984    3.6662    1.2997 H   0  0  0  0  0  0  0  0  0  0  0  0
    0.5939    2.1465    0.5320 H   0  0  0  0  0  0  0  0  0  0  0  0
    2.0522    0.4594   -0.4475 H   0  0  0  0  0  0  0  0  0  0  0  0
    1.1920   -1.7603   -1.1586 H   0  0  0  0  0  0  0  0  0  0  0  0
   -1.2474   -2.2779   -0.8704 H   0  0  0  0  0  0  0  0  0  0  0  0
   -5.9801    3.2177    0.0519 S   0  0  0  0  0  0  0  0  0  0  0  0
   -5.1709    4.0751    1.1645 O   0  0  0  0  0  0  0  0  0  0  0  0
   -5.5462    1.8383    0.1068 O   0  0  0  0  0  0  0  0  0  0  0  0
   -7.3591    3.6400    0.1658 O   0  0  0  0  0  0  0  0  0  0  0  0
   -5.3699    3.8109   -1.3335 O   0  0  0  0  0  0  0  0  0  0  0  0
   -5.8514    4.6294   -1.5439 H   0  0  0  0  0  0  0  0  0  0  0  0
  1  2  1  0  0  0  0
  1  4  2  0  0  0  0
  2  3  1  0  0  0  0
  5  4  1  0  0  0  0
  5 10  1  0  0  0  0
  6  5  2  0  0  0  0
  7  8  2  0  0  0  0
  7  6  1  0  0  0  0
  8  1  1  0  0  0  0
 11  6  1  0  0  0  0
 12  7  1  0  0  0  0
 13  8  1  0  0  0  0
 14 16  2  0  0  0  0
 14 17  2  0  0  0  0
 14 15  1  0  0  0  0
 15  9  1  0  0  0  0
 18 14  1  0  0  0  0
 19 18  1  0  0  0  0
M  RAD  3   2   2   3   3   4   2
M  END
