Coordinates from ORCA-job PhN2+~HSO4-_B3LYPG-6-31G_dp-CH-Scan-d09-49-n800
 OpenBabel11261919183D

 19 18  0  0  0  0  0  0  0  0999 V2000
   -2.0138    0.3410   -0.0042 C   0  0  0  0  0  0  0  0  0  0  0  0
   -3.4042    0.1838    0.0579 N   0  0  0  0  0  0  0  0  0  0  0  0
   -4.4035   -0.3286    0.0917 N   0  0  0  0  0  0  0  0  0  0  0  0
   -1.4193    1.5444    0.3906 C   0  0  0  0  0  0  0  0  0  0  0  0
   -0.0283    1.6107    0.3370 C   0  0  0  0  0  0  0  0  0  0  0  0
    0.7255    0.5218   -0.1071 C   0  0  0  0  0  0  0  0  0  0  0  0
    0.1002   -0.6670   -0.5014 C   0  0  0  0  0  0  0  0  0  0  0  0
   -1.2835   -0.7746   -0.4485 C   0  0  0  0  0  0  0  0  0  0  0  0
   -1.9638    2.2782    0.6687 H   0  0  0  0  0  0  0  0  0  0  0  0
    0.4654    2.5287    0.6384 H   0  0  0  0  0  0  0  0  0  0  0  0
    1.8079    0.5970   -0.1497 H   0  0  0  0  0  0  0  0  0  0  0  0
    0.6895   -1.5099   -0.8467 H   0  0  0  0  0  0  0  0  0  0  0  0
   -1.7957   -1.6835   -0.7436 H   0  0  0  0  0  0  0  0  0  0  0  0
   -5.4050    2.6805    0.0263 S   0  0  0  0  0  0  0  0  0  0  0  0
   -3.9180    2.5477   -0.0599 O   0  0  0  0  0  0  0  0  0  0  0  0
   -6.0316    1.3523    0.2657 O   0  0  0  0  0  0  0  0  0  0  0  0
   -5.8915    3.7801    0.8636 O   0  0  0  0  0  0  0  0  0  0  0  0
   -5.8374    3.0982   -1.5182 O   0  0  0  0  0  0  0  0  0  0  0  0
   -6.4085    3.8745   -1.4119 H   0  0  0  0  0  0  0  0  0  0  0  0
  1  2  1  0  0  0  0
  1  4  2  0  0  0  0
  2  3  1  0  0  0  0
  4  9  1  0  0  0  0
  5  4  1  0  0  0  0
  5 10  1  0  0  0  0
  6  5  2  0  0  0  0
  7  8  2  0  0  0  0
  7  6  1  0  0  0  0
  8  1  1  0  0  0  0
 11  6  1  0  0  0  0
 12  7  1  0  0  0  0
 13  8  1  0  0  0  0
 14 16  2  0  0  0  0
 14 17  1  0  0  0  0
 15 14  2  0  0  0  0
 18 19  1  0  0  0  0
 18 14  1  0  0  0  0
M  RAD  3   2   2   3   3  17   2
M  END
