Coordinates from ORCA-job PhN2+~HSO4-_B3LYPG-6-31G_dp-CH-Scan-d09-49-n800
 OpenBabel11261919183D

 19 18  0  0  0  0  0  0  0  0999 V2000
   -1.9658   -0.1826   -0.0580 C   0  0  0  0  0  0  0  0  0  0  0  0
   -3.2796   -0.6219    0.0403 N   0  0  0  0  0  0  0  0  0  0  0  0
   -4.3445   -0.9462    0.1294 N   0  0  0  0  0  0  0  0  0  0  0  0
   -1.7774    1.1809    0.2340 C   0  0  0  0  0  0  0  0  0  0  0  0
   -0.4061    1.5239    0.1124 C   0  0  0  0  0  0  0  0  0  0  0  0
    0.5879    0.6177   -0.2466 C   0  0  0  0  0  0  0  0  0  0  0  0
    0.2907   -0.7372   -0.5217 C   0  0  0  0  0  0  0  0  0  0  0  0
   -1.0139   -1.1700   -0.4303 C   0  0  0  0  0  0  0  0  0  0  0  0
   -3.4232    2.6873    0.7790 H   0  0  0  0  0  0  0  0  0  0  0  0
   -0.1052    2.5515    0.3111 H   0  0  0  0  0  0  0  0  0  0  0  0
    1.6218    0.9488   -0.3212 H   0  0  0  0  0  0  0  0  0  0  0  0
    1.0789   -1.4283   -0.8013 H   0  0  0  0  0  0  0  0  0  0  0  0
   -1.2997   -2.1983   -0.6322 H   0  0  0  0  0  0  0  0  0  0  0  0
   -5.4452    2.9886    0.1179 S   0  0  0  0  0  0  0  0  0  0  0  0
   -4.1485    3.3413    0.9772 O   0  0  0  0  0  0  0  0  0  0  0  0
   -5.5587    1.5514   -0.0540 O   0  0  0  0  0  0  0  0  0  0  0  0
   -6.5224    3.8044    0.6422 O   0  0  0  0  0  0  0  0  0  0  0  0
   -5.0548    3.5560   -1.3628 O   0  0  0  0  0  0  0  0  0  0  0  0
   -5.2499    4.5081   -1.3666 H   0  0  0  0  0  0  0  0  0  0  0  0
  1  2  1  0  0  0  0
  1  4  2  0  0  0  0
  2  3  1  0  0  0  0
  5  4  1  0  0  0  0
  5 10  1  0  0  0  0
  6  5  2  0  0  0  0
  7  8  2  0  0  0  0
  7  6  1  0  0  0  0
  8  1  1  0  0  0  0
  9 15  1  0  0  0  0
 11  6  1  0  0  0  0
 12  7  1  0  0  0  0
 13  8  1  0  0  0  0
 14 17  2  0  0  0  0
 14 15  1  0  0  0  0
 16 14  2  0  0  0  0
 18 14  1  0  0  0  0
 19 18  1  0  0  0  0
M  RAD  3   2   2   3   3   4   2
M  END
