Coordinates from ORCA-job PhN2+~HSO4-_B3LYPG-6-31G_dp-CH-Scan-d09-49-n800
 OpenBabel11261919183D

 19 18  0  0  0  0  0  0  0  0999 V2000
   -2.0651    0.0136   -0.3850 C   0  0  0  0  0  0  0  0  0  0  0  0
   -3.3863   -0.3057   -0.6527 N   0  0  0  0  0  0  0  0  0  0  0  0
   -4.4683   -0.4968   -0.8386 N   0  0  0  0  0  0  0  0  0  0  0  0
   -1.7828    1.3659   -0.1269 C   0  0  0  0  0  0  0  0  0  0  0  0
   -0.4279    1.6148    0.1378 C   0  0  0  0  0  0  0  0  0  0  0  0
    0.5282    0.5992    0.1377 C   0  0  0  0  0  0  0  0  0  0  0  0
    0.1776   -0.7372   -0.1336 C   0  0  0  0  0  0  0  0  0  0  0  0
   -1.1393   -1.0548   -0.4048 C   0  0  0  0  0  0  0  0  0  0  0  0
   -2.7673    2.3692   -0.1218 H   0  0  0  0  0  0  0  0  0  0  0  0
   -0.1193    2.6340    0.3530 H   0  0  0  0  0  0  0  0  0  0  0  0
    1.5668    0.8376    0.3514 H   0  0  0  0  0  0  0  0  0  0  0  0
    0.9331   -1.5155   -0.1300 H   0  0  0  0  0  0  0  0  0  0  0  0
   -1.4559   -2.0704   -0.6187 H   0  0  0  0  0  0  0  0  0  0  0  0
   -5.0349    2.9508    0.3259 S   0  0  0  0  0  0  0  0  0  0  0  0
   -3.6349    3.3488   -0.1372 O   0  0  0  0  0  0  0  0  0  0  0  0
   -5.0796    1.5196    0.6710 O   0  0  0  0  0  0  0  0  0  0  0  0
   -5.6157    3.9194    1.2525 O   0  0  0  0  0  0  0  0  0  0  0  0
   -5.9417    3.0413   -1.0556 O   0  0  0  0  0  0  0  0  0  0  0  0
   -6.3025    3.9416   -1.0757 H   0  0  0  0  0  0  0  0  0  0  0  0
  1  4  1  0  0  0  0
  2  1  1  0  0  0  0
  3  2  1  0  0  0  0
  4  5  2  0  0  0  0
  5 10  1  0  0  0  0
  6  5  1  0  0  0  0
  6 11  1  0  0  0  0
  7 12  1  0  0  0  0
  7  6  2  0  0  0  0
  8  1  2  0  0  0  0
  8  7  1  0  0  0  0
 13  8  1  0  0  0  0
 14 16  2  0  0  0  0
 14 17  2  0  0  0  0
 15  9  1  0  0  0  0
 15 14  1  0  0  0  0
 18 14  1  0  0  0  0
 19 18  1  0  0  0  0
M  RAD  3   2   2   3   3   4   2
M  END
