Coordinates from ORCA-job PhN2+~HSO4-_B3LYPG-6-31G_dp-CH-Scan-d09-49-n800
 OpenBabel11261919183D

 19 18  0  0  0  0  0  0  0  0999 V2000
   -1.9647   -0.1829   -0.0580 C   0  0  0  0  0  0  0  0  0  0  0  0
   -3.2788   -0.6218    0.0405 N   0  0  0  0  0  0  0  0  0  0  0  0
   -4.3437   -0.9457    0.1298 N   0  0  0  0  0  0  0  0  0  0  0  0
   -1.7760    1.1804    0.2344 C   0  0  0  0  0  0  0  0  0  0  0  0
   -0.4046    1.5231    0.1126 C   0  0  0  0  0  0  0  0  0  0  0  0
    0.5891    0.6167   -0.2468 C   0  0  0  0  0  0  0  0  0  0  0  0
    0.2914   -0.7381   -0.5222 C   0  0  0  0  0  0  0  0  0  0  0  0
   -1.0132   -1.1706   -0.4307 C   0  0  0  0  0  0  0  0  0  0  0  0
   -3.4254    2.6901    0.7806 H   0  0  0  0  0  0  0  0  0  0  0  0
   -0.1034    2.5506    0.3115 H   0  0  0  0  0  0  0  0  0  0  0  0
    1.6231    0.9475   -0.3215 H   0  0  0  0  0  0  0  0  0  0  0  0
    1.0794   -1.4293   -0.8020 H   0  0  0  0  0  0  0  0  0  0  0  0
   -1.2994   -2.1987   -0.6327 H   0  0  0  0  0  0  0  0  0  0  0  0
   -5.4470    2.9892    0.1177 S   0  0  0  0  0  0  0  0  0  0  0  0
   -4.1512    3.3433    0.9782 O   0  0  0  0  0  0  0  0  0  0  0  0
   -5.5590    1.5520   -0.0538 O   0  0  0  0  0  0  0  0  0  0  0  0
   -6.5251    3.8044    0.6410 O   0  0  0  0  0  0  0  0  0  0  0  0
   -5.0556    3.5566   -1.3627 O   0  0  0  0  0  0  0  0  0  0  0  0
   -5.2514    4.5086   -1.3669 H   0  0  0  0  0  0  0  0  0  0  0  0
  1  2  1  0  0  0  0
  1  4  2  0  0  0  0
  2  3  1  0  0  0  0
  5  4  1  0  0  0  0
  5 10  1  0  0  0  0
  6  5  2  0  0  0  0
  7  8  2  0  0  0  0
  7  6  1  0  0  0  0
  8  1  1  0  0  0  0
  9 15  1  0  0  0  0
 11  6  1  0  0  0  0
 12  7  1  0  0  0  0
 13  8  1  0  0  0  0
 14 17  2  0  0  0  0
 14 15  1  0  0  0  0
 16 14  2  0  0  0  0
 18 14  1  0  0  0  0
 19 18  1  0  0  0  0
M  RAD  3   2   2   3   3   4   2
M  END
