Coordinates from ORCA-job PhN2+~HSO4-_B3LYPG-6-31G_dp-CH-Scan-d09-49-n800
 OpenBabel11261919183D

 19 18  0  0  0  0  0  0  0  0999 V2000
   -1.9460   -0.1886   -0.0578 C   0  0  0  0  0  0  0  0  0  0  0  0
   -3.2629   -0.6190    0.0426 N   0  0  0  0  0  0  0  0  0  0  0  0
   -4.3301   -0.9355    0.1342 N   0  0  0  0  0  0  0  0  0  0  0  0
   -1.7506    1.1726    0.2394 C   0  0  0  0  0  0  0  0  0  0  0  0
   -0.3771    1.5079    0.1154 C   0  0  0  0  0  0  0  0  0  0  0  0
    0.6107    0.5976   -0.2499 C   0  0  0  0  0  0  0  0  0  0  0  0
    0.3052   -0.7549   -0.5296 C   0  0  0  0  0  0  0  0  0  0  0  0
   -1.0014   -1.1808   -0.4365 C   0  0  0  0  0  0  0  0  0  0  0  0
   -3.4645    2.7409    0.8087 H   0  0  0  0  0  0  0  0  0  0  0  0
   -0.0691    2.5330    0.3171 H   0  0  0  0  0  0  0  0  0  0  0  0
    1.6464    0.9230   -0.3261 H   0  0  0  0  0  0  0  0  0  0  0  0
    1.0890   -1.4491   -0.8138 H   0  0  0  0  0  0  0  0  0  0  0  0
   -1.2936   -2.2067   -0.6415 H   0  0  0  0  0  0  0  0  0  0  0  0
   -5.4787    3.0018    0.1152 S   0  0  0  0  0  0  0  0  0  0  0  0
   -4.1991    3.3813    0.9940 O   0  0  0  0  0  0  0  0  0  0  0  0
   -5.5651    1.5625   -0.0491 O   0  0  0  0  0  0  0  0  0  0  0  0
   -6.5741    3.8044    0.6208 O   0  0  0  0  0  0  0  0  0  0  0  0
   -5.0730    3.5680   -1.3609 O   0  0  0  0  0  0  0  0  0  0  0  0
   -5.2819    4.5171   -1.3734 H   0  0  0  0  0  0  0  0  0  0  0  0
  1  2  1  0  0  0  0
  1  4  2  0  0  0  0
  2  3  1  0  0  0  0
  5  4  1  0  0  0  0
  5 10  1  0  0  0  0
  6  5  2  0  0  0  0
  7  8  2  0  0  0  0
  7  6  1  0  0  0  0
  8  1  1  0  0  0  0
  9 15  1  0  0  0  0
 11  6  1  0  0  0  0
 12  7  1  0  0  0  0
 13  8  1  0  0  0  0
 14 17  2  0  0  0  0
 14 15  1  0  0  0  0
 16 14  2  0  0  0  0
 18 14  1  0  0  0  0
 19 18  1  0  0  0  0
M  RAD  3   2   2   3   3   4   2
M  END
