Coordinates from ORCA-job PhN2+~HSO4-_B3LYPG-6-31G_dp-CH-Scan-d09-49-n800
 OpenBabel11261919183D

 19 18  0  0  0  0  0  0  0  0999 V2000
   -1.8926   -0.2040   -0.0585 C   0  0  0  0  0  0  0  0  0  0  0  0
   -3.2177   -0.6108    0.0455 N   0  0  0  0  0  0  0  0  0  0  0  0
   -4.2912   -0.9051    0.1426 N   0  0  0  0  0  0  0  0  0  0  0  0
   -1.6776    1.1500    0.2551 C   0  0  0  0  0  0  0  0  0  0  0  0
   -0.2981    1.4634    0.1266 C   0  0  0  0  0  0  0  0  0  0  0  0
    0.6727    0.5421   -0.2560 C   0  0  0  0  0  0  0  0  0  0  0  0
    0.3443   -0.8025   -0.5507 C   0  0  0  0  0  0  0  0  0  0  0  0
   -0.9682   -1.2087   -0.4553 C   0  0  0  0  0  0  0  0  0  0  0  0
   -3.5741    2.8858    0.8860 H   0  0  0  0  0  0  0  0  0  0  0  0
    0.0293    2.4806    0.3389 H   0  0  0  0  0  0  0  0  0  0  0  0
    1.7132    0.8515   -0.3349 H   0  0  0  0  0  0  0  0  0  0  0  0
    1.1157   -1.5053   -0.8478 H   0  0  0  0  0  0  0  0  0  0  0  0
   -1.2783   -2.2273   -0.6709 H   0  0  0  0  0  0  0  0  0  0  0  0
   -5.5658    3.0388    0.1107 S   0  0  0  0  0  0  0  0  0  0  0  0
   -4.3329    3.4954    1.0303 O   0  0  0  0  0  0  0  0  0  0  0  0
   -5.5775    1.5953   -0.0242 O   0  0  0  0  0  0  0  0  0  0  0  0
   -6.7088    3.8029    0.5662 O   0  0  0  0  0  0  0  0  0  0  0  0
   -5.1295    3.5972   -1.3575 O   0  0  0  0  0  0  0  0  0  0  0  0
   -5.3784    4.5361   -1.3973 H   0  0  0  0  0  0  0  0  0  0  0  0
  1  2  1  0  0  0  0
  1  4  2  0  0  0  0
  2  3  1  0  0  0  0
  5  4  1  0  0  0  0
  5 10  1  0  0  0  0
  6  5  2  0  0  0  0
  7  8  2  0  0  0  0
  7  6  1  0  0  0  0
  8  1  1  0  0  0  0
  9 15  1  0  0  0  0
 11  6  1  0  0  0  0
 12  7  1  0  0  0  0
 13  8  1  0  0  0  0
 14 17  2  0  0  0  0
 14 15  1  0  0  0  0
 16 14  2  0  0  0  0
 18 14  1  0  0  0  0
 19 18  1  0  0  0  0
M  RAD  3   2   2   3   3   4   2
M  END
