Coordinates from ORCA-job PhN2+~HSO4-_B3LYPG-6-31G_dp-CH-Scan-d09-49-n800
 OpenBabel11261919183D

 19 18  0  0  0  0  0  0  0  0999 V2000
   -1.7442   -0.2494   -0.0545 C   0  0  0  0  0  0  0  0  0  0  0  0
   -3.0898   -0.5892    0.0640 N   0  0  0  0  0  0  0  0  0  0  0  0
   -4.1785   -0.8171    0.1797 N   0  0  0  0  0  0  0  0  0  0  0  0
   -1.4733    1.0801    0.3106 C   0  0  0  0  0  0  0  0  0  0  0  0
   -0.0797    1.3329    0.1647 C   0  0  0  0  0  0  0  0  0  0  0  0
    0.8410    0.3866   -0.2744 C   0  0  0  0  0  0  0  0  0  0  0  0
    0.4479   -0.9310   -0.6158 C   0  0  0  0  0  0  0  0  0  0  0  0
   -0.8792   -1.2822   -0.5101 C   0  0  0  0  0  0  0  0  0  0  0  0
   -3.9040    3.2898    1.0979 H   0  0  0  0  0  0  0  0  0  0  0  0
    0.3005    2.3252    0.4099 H   0  0  0  0  0  0  0  0  0  0  0  0
    1.8932    0.6522   -0.3633 H   0  0  0  0  0  0  0  0  0  0  0  0
    1.1824   -1.6539   -0.9554 H   0  0  0  0  0  0  0  0  0  0  0  0
   -1.2400   -2.2766   -0.7584 H   0  0  0  0  0  0  0  0  0  0  0  0
   -5.7909    3.1412    0.0971 S   0  0  0  0  0  0  0  0  0  0  0  0
   -4.7263    3.8128    1.1104 O   0  0  0  0  0  0  0  0  0  0  0  0
   -5.5809    1.7093    0.0524 O   0  0  0  0  0  0  0  0  0  0  0  0
   -7.0630    3.7596    0.4035 O   0  0  0  0  0  0  0  0  0  0  0  0
   -5.2813    3.6966   -1.3450 O   0  0  0  0  0  0  0  0  0  0  0  0
   -5.6495    4.5886   -1.4645 H   0  0  0  0  0  0  0  0  0  0  0  0
  1  2  1  0  0  0  0
  1  4  2  0  0  0  0
  2  3  1  0  0  0  0
  5  4  1  0  0  0  0
  5 10  1  0  0  0  0
  6  5  2  0  0  0  0
  7  8  2  0  0  0  0
  7  6  1  0  0  0  0
  8  1  1  0  0  0  0
  9 15  1  0  0  0  0
 11  6  1  0  0  0  0
 12  7  1  0  0  0  0
 13  8  1  0  0  0  0
 14 17  2  0  0  0  0
 14 15  1  0  0  0  0
 16 14  2  0  0  0  0
 18 14  1  0  0  0  0
 19 18  1  0  0  0  0
M  RAD  3   2   2   3   3   4   2
M  END
