Coordinates from ORCA-job PhN2+~HSO4-_B3LYPG-6-31G_dp-CH-Scan-d09-49-n800
 OpenBabel11261919183D

 19 18  0  0  0  0  0  0  0  0999 V2000
   -2.0665    0.0044   -0.3829 C   0  0  0  0  0  0  0  0  0  0  0  0
   -3.3846   -0.3295   -0.6488 N   0  0  0  0  0  0  0  0  0  0  0  0
   -4.4595   -0.5503   -0.8426 N   0  0  0  0  0  0  0  0  0  0  0  0
   -1.7975    1.3610   -0.1319 C   0  0  0  0  0  0  0  0  0  0  0  0
   -0.4406    1.6147    0.1283 C   0  0  0  0  0  0  0  0  0  0  0  0
    0.5221    0.6059    0.1304 C   0  0  0  0  0  0  0  0  0  0  0  0
    0.1799   -0.7348   -0.1339 C   0  0  0  0  0  0  0  0  0  0  0  0
   -1.1352   -1.0611   -0.3999 C   0  0  0  0  0  0  0  0  0  0  0  0
   -2.8036    2.3921   -0.1158 H   0  0  0  0  0  0  0  0  0  0  0  0
   -0.1349    2.6360    0.3391 H   0  0  0  0  0  0  0  0  0  0  0  0
    1.5598    0.8519    0.3405 H   0  0  0  0  0  0  0  0  0  0  0  0
    0.9404   -1.5081   -0.1284 H   0  0  0  0  0  0  0  0  0  0  0  0
   -1.4467   -2.0795   -0.6086 H   0  0  0  0  0  0  0  0  0  0  0  0
   -5.0365    2.9508    0.3330 S   0  0  0  0  0  0  0  0  0  0  0  0
   -3.6215    3.3482   -0.1044 O   0  0  0  0  0  0  0  0  0  0  0  0
   -5.0908    1.5182    0.6586 O   0  0  0  0  0  0  0  0  0  0  0  0
   -5.6177    3.9180    1.2590 O   0  0  0  0  0  0  0  0  0  0  0  0
   -5.9155    3.0667   -1.0622 O   0  0  0  0  0  0  0  0  0  0  0  0
   -6.2666    3.9709   -1.0808 H   0  0  0  0  0  0  0  0  0  0  0  0
  1  4  1  0  0  0  0
  2  1  1  0  0  0  0
  3  2  1  0  0  0  0
  4  5  2  0  0  0  0
  5  6  1  0  0  0  0
  5 10  1  0  0  0  0
  6 11  1  0  0  0  0
  7 12  1  0  0  0  0
  7  6  2  0  0  0  0
  8  1  2  0  0  0  0
  8  7  1  0  0  0  0
  9 15  1  0  0  0  0
 13  8  1  0  0  0  0
 14 16  2  0  0  0  0
 14 17  2  0  0  0  0
 15 14  1  0  0  0  0
 18 14  1  0  0  0  0
 19 18  1  0  0  0  0
M  RAD  3   2   2   3   3   4   2
M  END
