Coordinates from ORCA-job PhN2+~HSO4-_B3LYPG-6-31G_dp-CH-Scan-d09-49-n800
 OpenBabel11261919183D

 19 18  0  0  0  0  0  0  0  0999 V2000
   -2.0151    0.3409   -0.0038 C   0  0  0  0  0  0  0  0  0  0  0  0
   -3.4054    0.1829    0.0583 N   0  0  0  0  0  0  0  0  0  0  0  0
   -4.4047   -0.3295    0.0923 N   0  0  0  0  0  0  0  0  0  0  0  0
   -1.4218    1.5451    0.3905 C   0  0  0  0  0  0  0  0  0  0  0  0
   -0.0308    1.6122    0.3366 C   0  0  0  0  0  0  0  0  0  0  0  0
    0.7240    0.5238   -0.1072 C   0  0  0  0  0  0  0  0  0  0  0  0
    0.0995   -0.6656   -0.5010 C   0  0  0  0  0  0  0  0  0  0  0  0
   -1.2841   -0.7742   -0.4479 C   0  0  0  0  0  0  0  0  0  0  0  0
   -1.9576    2.2672    0.6649 H   0  0  0  0  0  0  0  0  0  0  0  0
    0.4621    2.5307    0.6378 H   0  0  0  0  0  0  0  0  0  0  0  0
    1.8063    0.6000   -0.1499 H   0  0  0  0  0  0  0  0  0  0  0  0
    0.6895   -1.5081   -0.8462 H   0  0  0  0  0  0  0  0  0  0  0  0
   -1.7956   -1.6836   -0.7426 H   0  0  0  0  0  0  0  0  0  0  0  0
   -5.4037    2.6802    0.0265 S   0  0  0  0  0  0  0  0  0  0  0  0
   -3.9168    2.5458   -0.0590 O   0  0  0  0  0  0  0  0  0  0  0  0
   -6.0318    1.3527    0.2655 O   0  0  0  0  0  0  0  0  0  0  0  0
   -5.8893    3.7804    0.8638 O   0  0  0  0  0  0  0  0  0  0  0  0
   -5.8350    3.0988   -1.5180 O   0  0  0  0  0  0  0  0  0  0  0  0
   -6.4053    3.8756   -1.4119 H   0  0  0  0  0  0  0  0  0  0  0  0
  1  2  1  0  0  0  0
  1  4  2  0  0  0  0
  2  3  1  0  0  0  0
  4  9  1  0  0  0  0
  5  4  1  0  0  0  0
  5 10  1  0  0  0  0
  6  5  2  0  0  0  0
  7  8  2  0  0  0  0
  7  6  1  0  0  0  0
  8  1  1  0  0  0  0
 11  6  1  0  0  0  0
 12  7  1  0  0  0  0
 13  8  1  0  0  0  0
 14 16  2  0  0  0  0
 14 17  1  0  0  0  0
 15 14  2  0  0  0  0
 18 19  1  0  0  0  0
 18 14  1  0  0  0  0
M  RAD  3   2   2   3   3  17   2
M  END
