Coordinates from ORCA-job PhN2+~HSO4-_B3LYPG-6-31G_dp-CH-Scan-d09-49-n800
 OpenBabel11261919183D

 19 18  0  0  0  0  0  0  0  0999 V2000
   -2.0241   -0.1696   -0.0237 C   0  0  0  0  0  0  0  0  0  0  0  0
   -3.3249   -0.6369    0.1022 N   0  0  0  0  0  0  0  0  0  0  0  0
   -4.3800   -0.9833    0.2137 N   0  0  0  0  0  0  0  0  0  0  0  0
   -1.8538    1.2033    0.2362 C   0  0  0  0  0  0  0  0  0  0  0  0
   -0.4937    1.5723    0.0896 C   0  0  0  0  0  0  0  0  0  0  0  0
    0.5137    0.6783   -0.2640 C   0  0  0  0  0  0  0  0  0  0  0  0
    0.2392   -0.6866   -0.5063 C   0  0  0  0  0  0  0  0  0  0  0  0
   -1.0556   -1.1427   -0.3879 C   0  0  0  0  0  0  0  0  0  0  0  0
   -3.3085    2.5028    0.7060 H   0  0  0  0  0  0  0  0  0  0  0  0
   -0.2140    2.6100    0.2630 H   0  0  0  0  0  0  0  0  0  0  0  0
    1.5393    1.0284   -0.3592 H   0  0  0  0  0  0  0  0  0  0  0  0
    1.0365   -1.3685   -0.7822 H   0  0  0  0  0  0  0  0  0  0  0  0
   -1.3234   -2.1803   -0.5645 H   0  0  0  0  0  0  0  0  0  0  0  0
   -5.3335    2.9315    0.0723 S   0  0  0  0  0  0  0  0  0  0  0  0
   -4.0339    3.1779    0.9435 O   0  0  0  0  0  0  0  0  0  0  0  0
   -5.4695    1.5184   -0.2436 O   0  0  0  0  0  0  0  0  0  0  0  0
   -6.4085    3.6988    0.6732 O   0  0  0  0  0  0  0  0  0  0  0  0
   -4.9552    3.6385   -1.3538 O   0  0  0  0  0  0  0  0  0  0  0  0
   -5.1658    4.5829   -1.2659 H   0  0  0  0  0  0  0  0  0  0  0  0
  1  2  1  0  0  0  0
  1  4  2  0  0  0  0
  2  3  1  0  0  0  0
  5  4  1  0  0  0  0
  5 10  1  0  0  0  0
  6  5  2  0  0  0  0
  7  8  2  0  0  0  0
  7  6  1  0  0  0  0
  8  1  1  0  0  0  0
  9 15  1  0  0  0  0
 11  6  1  0  0  0  0
 12  7  1  0  0  0  0
 13  8  1  0  0  0  0
 14 17  2  0  0  0  0
 14 15  1  0  0  0  0
 16 14  2  0  0  0  0
 18 19  1  0  0  0  0
 18 14  1  0  0  0  0
M  RAD  3   2   2   3   3   4   2
M  END
