Coordinates from ORCA-job PhN2+~HSO4-_B3LYPG-6-31G_dp-CH-Scan-d09-49-n800
 OpenBabel11261919183D

 19 18  0  0  0  0  0  0  0  0999 V2000
   -1.8574   -0.2149   -0.0547 C   0  0  0  0  0  0  0  0  0  0  0  0
   -3.1872   -0.6063    0.0553 N   0  0  0  0  0  0  0  0  0  0  0  0
   -4.2644   -0.8854    0.1591 N   0  0  0  0  0  0  0  0  0  0  0  0
   -1.6286    1.1327    0.2758 C   0  0  0  0  0  0  0  0  0  0  0  0
   -0.2457    1.4319    0.1395 C   0  0  0  0  0  0  0  0  0  0  0  0
    0.7121    0.5059   -0.2634 C   0  0  0  0  0  0  0  0  0  0  0  0
    0.3675   -0.8318   -0.5731 C   0  0  0  0  0  0  0  0  0  0  0  0
   -0.9483   -1.2254   -0.4723 C   0  0  0  0  0  0  0  0  0  0  0  0
   -3.6561    2.9907    0.9542 H   0  0  0  0  0  0  0  0  0  0  0  0
    0.0954    2.4427    0.3623 H   0  0  0  0  0  0  0  0  0  0  0  0
    1.7553    0.8053   -0.3470 H   0  0  0  0  0  0  0  0  0  0  0  0
    1.1294   -1.5383   -0.8856 H   0  0  0  0  0  0  0  0  0  0  0  0
   -1.2712   -2.2377   -0.6985 H   0  0  0  0  0  0  0  0  0  0  0  0
   -5.6210    3.0625    0.1054 S   0  0  0  0  0  0  0  0  0  0  0  0
   -4.4331    3.5789    1.0588 O   0  0  0  0  0  0  0  0  0  0  0  0
   -5.5777    1.6179    0.0007 O   0  0  0  0  0  0  0  0  0  0  0  0
   -6.8010    3.7976    0.5106 O   0  0  0  0  0  0  0  0  0  0  0  0
   -5.1525    3.6099   -1.3557 O   0  0  0  0  0  0  0  0  0  0  0  0
   -5.4310    4.5390   -1.4227 H   0  0  0  0  0  0  0  0  0  0  0  0
  1  2  1  0  0  0  0
  1  4  2  0  0  0  0
  2  3  1  0  0  0  0
  5  4  1  0  0  0  0
  5 10  1  0  0  0  0
  6  5  2  0  0  0  0
  7  8  2  0  0  0  0
  7  6  1  0  0  0  0
  8  1  1  0  0  0  0
  9 15  1  0  0  0  0
 11  6  1  0  0  0  0
 12  7  1  0  0  0  0
 13  8  1  0  0  0  0
 14 17  2  0  0  0  0
 14 15  1  0  0  0  0
 16 14  2  0  0  0  0
 18 14  1  0  0  0  0
 19 18  1  0  0  0  0
M  RAD  3   2   2   3   3   4   2
M  END
