Coordinates from ORCA-job PhN2+~HSO4-_B3LYPG-6-31G_dp-CH-Scan-d09-49-n800
 OpenBabel11261919183D

 19 18  0  0  0  0  0  0  0  0999 V2000
   -1.9135   -0.1981   -0.0589 C   0  0  0  0  0  0  0  0  0  0  0  0
   -3.2355   -0.6143    0.0432 N   0  0  0  0  0  0  0  0  0  0  0  0
   -4.3066   -0.9172    0.1380 N   0  0  0  0  0  0  0  0  0  0  0  0
   -1.7065    1.1590    0.2478 C   0  0  0  0  0  0  0  0  0  0  0  0
   -0.3291    1.4809    0.1217 C   0  0  0  0  0  0  0  0  0  0  0  0
    0.6485    0.5637   -0.2533 C   0  0  0  0  0  0  0  0  0  0  0  0
    0.3293   -0.7842   -0.5417 C   0  0  0  0  0  0  0  0  0  0  0  0
   -0.9810   -1.1981   -0.4477 C   0  0  0  0  0  0  0  0  0  0  0  0
   -3.5297    2.8310    0.8543 H   0  0  0  0  0  0  0  0  0  0  0  0
   -0.0093    2.5013    0.3296 H   0  0  0  0  0  0  0  0  0  0  0  0
    1.6872    0.8794   -0.3307 H   0  0  0  0  0  0  0  0  0  0  0  0
    1.1058   -1.4837   -0.8331 H   0  0  0  0  0  0  0  0  0  0  0  0
   -1.2839   -2.2197   -0.6589 H   0  0  0  0  0  0  0  0  0  0  0  0
   -5.5323    3.0242    0.1128 S   0  0  0  0  0  0  0  0  0  0  0  0
   -4.2800    3.4508    1.0168 O   0  0  0  0  0  0  0  0  0  0  0  0
   -5.5733    1.5820   -0.0338 O   0  0  0  0  0  0  0  0  0  0  0  0
   -6.6566    3.8040    0.5887 O   0  0  0  0  0  0  0  0  0  0  0  0
   -5.1080    3.5856   -1.3585 O   0  0  0  0  0  0  0  0  0  0  0  0
   -5.3411    4.5288   -1.3873 H   0  0  0  0  0  0  0  0  0  0  0  0
  1  2  1  0  0  0  0
  1  4  2  0  0  0  0
  2  3  1  0  0  0  0
  5  4  1  0  0  0  0
  5 10  1  0  0  0  0
  6  5  2  0  0  0  0
  7  8  2  0  0  0  0
  7  6  1  0  0  0  0
  8  1  1  0  0  0  0
  9 15  1  0  0  0  0
 11  6  1  0  0  0  0
 12  7  1  0  0  0  0
 13  8  1  0  0  0  0
 14 17  2  0  0  0  0
 14 15  1  0  0  0  0
 16 14  2  0  0  0  0
 18 14  1  0  0  0  0
 19 18  1  0  0  0  0
M  RAD  3   2   2   3   3   4   2
M  END
