Coordinates from ORCA-job PhN2+~HSO4-_B3LYPG-6-31G_dp-CH-Scan-d09-49-n800
 OpenBabel11261919183D

 19 18  0  0  0  0  0  0  0  0999 V2000
   -1.6660   -0.2703   -0.0388 C   0  0  0  0  0  0  0  0  0  0  0  0
   -3.0201   -0.5728    0.0990 N   0  0  0  0  0  0  0  0  0  0  0  0
   -4.1141   -0.7632    0.2344 N   0  0  0  0  0  0  0  0  0  0  0  0
   -1.3566    1.0395    0.3620 C   0  0  0  0  0  0  0  0  0  0  0  0
    0.0416    1.2588    0.1958 C   0  0  0  0  0  0  0  0  0  0  0  0
    0.9278    0.3029   -0.2907 C   0  0  0  0  0  0  0  0  0  0  0  0
    0.4931   -0.9933   -0.6645 C   0  0  0  0  0  0  0  0  0  0  0  0
   -0.8405   -1.3127   -0.5432 C   0  0  0  0  0  0  0  0  0  0  0  0
   -4.1062    3.5125    1.2080 H   0  0  0  0  0  0  0  0  0  0  0  0
    0.4540    2.2326    0.4634 H   0  0  0  0  0  0  0  0  0  0  0  0
    1.9851    0.5431   -0.3928 H   0  0  0  0  0  0  0  0  0  0  0  0
    1.2019   -1.7242   -1.0402 H   0  0  0  0  0  0  0  0  0  0  0  0
   -1.2330   -2.2893   -0.8138 H   0  0  0  0  0  0  0  0  0  0  0  0
   -5.8989    3.1881    0.0821 S   0  0  0  0  0  0  0  0  0  0  0  0
   -4.9616    3.9732    1.1438 O   0  0  0  0  0  0  0  0  0  0  0  0
   -5.5587    1.7816    0.0918 O   0  0  0  0  0  0  0  0  0  0  0  0
   -7.2359    3.6990    0.2937 O   0  0  0  0  0  0  0  0  0  0  0  0
   -5.3460    3.7582   -1.3372 O   0  0  0  0  0  0  0  0  0  0  0  0
   -5.7815    4.6115   -1.5039 H   0  0  0  0  0  0  0  0  0  0  0  0
  1  2  1  0  0  0  0
  1  4  2  0  0  0  0
  2  3  1  0  0  0  0
  5  4  1  0  0  0  0
  5 10  1  0  0  0  0
  6  5  2  0  0  0  0
  7  8  2  0  0  0  0
  7  6  1  0  0  0  0
  8  1  1  0  0  0  0
 11  6  1  0  0  0  0
 12  7  1  0  0  0  0
 13  8  1  0  0  0  0
 14 16  2  0  0  0  0
 14 17  2  0  0  0  0
 14 15  1  0  0  0  0
 15  9  1  0  0  0  0
 18 14  1  0  0  0  0
 19 18  1  0  0  0  0
M  RAD  3   2   2   3   3   4   2
M  END
