Coordinates from ORCA-job PhN2+~HSO4-_B3LYPG-6-31G_dp-CH-Scan-d09-49-n800
 OpenBabel11261919183D

 19 18  0  0  0  0  0  0  0  0999 V2000
   -1.5400   -0.2848    0.0795 C   0  0  0  0  0  0  0  0  0  0  0  0
   -2.8947   -0.5255    0.3163 N   0  0  0  0  0  0  0  0  0  0  0  0
   -3.9815   -0.6602    0.5462 N   0  0  0  0  0  0  0  0  0  0  0  0
   -1.1178    0.9456    0.6042 C   0  0  0  0  0  0  0  0  0  0  0  0
    0.2713    1.1136    0.3297 C   0  0  0  0  0  0  0  0  0  0  0  0
    1.0475    0.1845   -0.3555 C   0  0  0  0  0  0  0  0  0  0  0  0
    0.5008   -1.0309   -0.8392 C   0  0  0  0  0  0  0  0  0  0  0  0
   -0.8332   -1.2966   -0.6263 C   0  0  0  0  0  0  0  0  0  0  0  0
   -4.5044    3.8064    1.3738 H   0  0  0  0  0  0  0  0  0  0  0  0
    0.7662    2.0239    0.6719 H   0  0  0  0  0  0  0  0  0  0  0  0
    2.1036    0.3825   -0.5329 H   0  0  0  0  0  0  0  0  0  0  0  0
    1.1261   -1.7428   -1.3685 H   0  0  0  0  0  0  0  0  0  0  0  0
   -1.3086   -2.2109   -0.9717 H   0  0  0  0  0  0  0  0  0  0  0  0
   -6.0447    3.2283    0.0037 S   0  0  0  0  0  0  0  0  0  0  0  0
   -5.3809    4.1645    1.1501 O   0  0  0  0  0  0  0  0  0  0  0  0
   -5.5278    1.8830    0.1344 O   0  0  0  0  0  0  0  0  0  0  0  0
   -7.4523    3.5616   -0.0020 O   0  0  0  0  0  0  0  0  0  0  0  0
   -5.3653    3.8269   -1.3464 O   0  0  0  0  0  0  0  0  0  0  0  0
   -5.8798    4.6062   -1.6185 H   0  0  0  0  0  0  0  0  0  0  0  0
  1  2  1  0  0  0  0
  1  4  2  0  0  0  0
  2  3  1  0  0  0  0
  5  4  1  0  0  0  0
  5 10  1  0  0  0  0
  6  5  2  0  0  0  0
  7  8  2  0  0  0  0
  7  6  1  0  0  0  0
  8  1  1  0  0  0  0
 11  6  1  0  0  0  0
 12  7  1  0  0  0  0
 13  8  1  0  0  0  0
 14 16  2  0  0  0  0
 14 15  1  0  0  0  0
 15  9  1  0  0  0  0
 17 14  2  0  0  0  0
 18 14  1  0  0  0  0
 19 18  1  0  0  0  0
M  RAD  3   2   2   3   3   4   2
M  END
