Coordinates from ORCA-job PhN2+~HSO4-_B3LYPG-6-31G_dp-CH-Scan-d09-49-n800
 OpenBabel11261919183D

 19 18  0  0  0  0  0  0  0  0999 V2000
   -1.7516   -0.2475   -0.0542 C   0  0  0  0  0  0  0  0  0  0  0  0
   -3.0961   -0.5910    0.0641 N   0  0  0  0  0  0  0  0  0  0  0  0
   -4.1840   -0.8225    0.1792 N   0  0  0  0  0  0  0  0  0  0  0  0
   -1.4837    1.0833    0.3087 C   0  0  0  0  0  0  0  0  0  0  0  0
   -0.0908    1.3395    0.1630 C   0  0  0  0  0  0  0  0  0  0  0  0
    0.8324    0.3946   -0.2741 C   0  0  0  0  0  0  0  0  0  0  0  0
    0.4427   -0.9245   -0.6134 C   0  0  0  0  0  0  0  0  0  0  0  0
   -0.8836   -1.2788   -0.5076 C   0  0  0  0  0  0  0  0  0  0  0  0
   -3.8880    3.2705    1.0904 H   0  0  0  0  0  0  0  0  0  0  0  0
    0.2868    2.3331    0.4066 H   0  0  0  0  0  0  0  0  0  0  0  0
    1.8840    0.6626   -0.3630 H   0  0  0  0  0  0  0  0  0  0  0  0
    1.1791   -1.6461   -0.9515 H   0  0  0  0  0  0  0  0  0  0  0  0
   -1.2418   -2.2745   -0.7545 H   0  0  0  0  0  0  0  0  0  0  0  0
   -5.7801    3.1362    0.0972 S   0  0  0  0  0  0  0  0  0  0  0  0
   -4.7076    3.7980    1.1080 O   0  0  0  0  0  0  0  0  0  0  0  0
   -5.5807    1.7029    0.0486 O   0  0  0  0  0  0  0  0  0  0  0  0
   -7.0469    3.7627    0.4090 O   0  0  0  0  0  0  0  0  0  0  0  0
   -5.2717    3.6910   -1.3457 O   0  0  0  0  0  0  0  0  0  0  0  0
   -5.6341    4.5858   -1.4620 H   0  0  0  0  0  0  0  0  0  0  0  0
  1  2  1  0  0  0  0
  1  4  2  0  0  0  0
  2  3  1  0  0  0  0
  5  4  1  0  0  0  0
  5 10  1  0  0  0  0
  6  5  2  0  0  0  0
  7  8  2  0  0  0  0
  7  6  1  0  0  0  0
  8  1  1  0  0  0  0
  9 15  1  0  0  0  0
 11  6  1  0  0  0  0
 12  7  1  0  0  0  0
 13  8  1  0  0  0  0
 14 17  2  0  0  0  0
 14 15  1  0  0  0  0
 16 14  2  0  0  0  0
 18 14  1  0  0  0  0
 19 18  1  0  0  0  0
M  RAD  3   2   2   3   3   4   2
M  END
