Coordinates from ORCA-job PhN2+~HSO4-_B3LYPG-6-31G_dp-CH-Scan-d09-49-n800
 OpenBabel11261919183D

 19 18  0  0  0  0  0  0  0  0999 V2000
   -2.0509   -0.0888   -0.2428 C   0  0  0  0  0  0  0  0  0  0  0  0
   -3.3720   -0.4995   -0.3480 N   0  0  0  0  0  0  0  0  0  0  0  0
   -4.4426   -0.8031   -0.4280 N   0  0  0  0  0  0  0  0  0  0  0  0
   -1.8520    1.2774    0.0320 C   0  0  0  0  0  0  0  0  0  0  0  0
   -0.4728    1.5809    0.1172 C   0  0  0  0  0  0  0  0  0  0  0  0
    0.5350    0.6346   -0.0520 C   0  0  0  0  0  0  0  0  0  0  0  0
    0.2372   -0.7176   -0.3276 C   0  0  0  0  0  0  0  0  0  0  0  0
   -1.0806   -1.1083   -0.4296 C   0  0  0  0  0  0  0  0  0  0  0  0
   -3.0720    2.5395    0.3026 H   0  0  0  0  0  0  0  0  0  0  0  0
   -0.1800    2.6073    0.3292 H   0  0  0  0  0  0  0  0  0  0  0  0
    1.5776    0.9344    0.0286 H   0  0  0  0  0  0  0  0  0  0  0  0
    1.0336   -1.4424   -0.4582 H   0  0  0  0  0  0  0  0  0  0  0  0
   -1.3655   -2.1346   -0.6413 H   0  0  0  0  0  0  0  0  0  0  0  0
   -5.2255    2.9758    0.3200 S   0  0  0  0  0  0  0  0  0  0  0  0
   -3.7143    3.3529    0.5149 O   0  0  0  0  0  0  0  0  0  0  0  0
   -5.4204    1.5426    0.5003 O   0  0  0  0  0  0  0  0  0  0  0  0
   -6.0388    3.9515    1.0248 O   0  0  0  0  0  0  0  0  0  0  0  0
   -5.4594    3.2142   -1.2874 O   0  0  0  0  0  0  0  0  0  0  0  0
   -5.6522    4.1587   -1.4059 H   0  0  0  0  0  0  0  0  0  0  0  0
  1  4  2  0  0  0  0
  2  1  1  0  0  0  0
  3  2  1  0  0  0  0
  4  5  1  0  0  0  0
  5 10  1  0  0  0  0
  6 11  1  0  0  0  0
  6  5  2  0  0  0  0
  7  6  1  0  0  0  0
  8  7  2  0  0  0  0
  8  1  1  0  0  0  0
  9 15  1  0  0  0  0
 12  7  1  0  0  0  0
 13  8  1  0  0  0  0
 14 16  2  0  0  0  0
 14 15  1  0  0  0  0
 14 17  2  0  0  0  0
 18 14  1  0  0  0  0
 19 18  1  0  0  0  0
M  RAD  3   2   2   3   3   4   2
M  END
