Coordinates from ORCA-job PhN2+~HSO4-_B3LYPG-6-31G_dp-CH-Scan-d09-49-n800
 OpenBabel11261919183D

 19 18  0  0  0  0  0  0  0  0999 V2000
   -1.6601   -0.2714   -0.0350 C   0  0  0  0  0  0  0  0  0  0  0  0
   -3.0148   -0.5704    0.1051 N   0  0  0  0  0  0  0  0  0  0  0  0
   -4.1089   -0.7585    0.2433 N   0  0  0  0  0  0  0  0  0  0  0  0
   -1.3460    1.0351    0.3726 C   0  0  0  0  0  0  0  0  0  0  0  0
    0.0524    1.2514    0.2033 C   0  0  0  0  0  0  0  0  0  0  0  0
    0.9344    0.2960   -0.2917 C   0  0  0  0  0  0  0  0  0  0  0  0
    0.4950   -0.9967   -0.6719 C   0  0  0  0  0  0  0  0  0  0  0  0
   -0.8392   -1.3132   -0.5481 C   0  0  0  0  0  0  0  0  0  0  0  0
   -4.1203    3.5369    1.2107 H   0  0  0  0  0  0  0  0  0  0  0  0
    0.4685    2.2225    0.4755 H   0  0  0  0  0  0  0  0  0  0  0  0
    1.9920    0.5340   -0.3959 H   0  0  0  0  0  0  0  0  0  0  0  0
    1.2005   -1.7273   -1.0541 H   0  0  0  0  0  0  0  0  0  0  0  0
   -1.2353   -2.2870   -0.8232 H   0  0  0  0  0  0  0  0  0  0  0  0
   -5.9061    3.1901    0.0805 S   0  0  0  0  0  0  0  0  0  0  0  0
   -4.9808    3.9869    1.1442 O   0  0  0  0  0  0  0  0  0  0  0  0
   -5.5541    1.7864    0.0959 O   0  0  0  0  0  0  0  0  0  0  0  0
   -7.2482    3.6904    0.2846 O   0  0  0  0  0  0  0  0  0  0  0  0
   -5.3512    3.7607   -1.3379 O   0  0  0  0  0  0  0  0  0  0  0  0
   -5.7936    4.6096   -1.5094 H   0  0  0  0  0  0  0  0  0  0  0  0
  1  2  1  0  0  0  0
  1  4  2  0  0  0  0
  2  3  1  0  0  0  0
  5  4  1  0  0  0  0
  5 10  1  0  0  0  0
  6  5  2  0  0  0  0
  7  8  2  0  0  0  0
  7  6  1  0  0  0  0
  8  1  1  0  0  0  0
 11  6  1  0  0  0  0
 12  7  1  0  0  0  0
 13  8  1  0  0  0  0
 14 16  2  0  0  0  0
 14 17  2  0  0  0  0
 14 15  1  0  0  0  0
 15  9  1  0  0  0  0
 18 14  1  0  0  0  0
 19 18  1  0  0  0  0
M  RAD  3   2   2   3   3   4   2
M  END
