Coordinates from ORCA-job PhN2+~HSO4-_B3LYPG-6-31G_dp-CH-Scan-d09-49-n800
 OpenBabel11261919183D

 19 18  0  0  0  0  0  0  0  0999 V2000
   -2.0602   -0.0417   -0.3126 C   0  0  0  0  0  0  0  0  0  0  0  0
   -3.3825   -0.4179   -0.4959 N   0  0  0  0  0  0  0  0  0  0  0  0
   -4.4543   -0.6921   -0.6374 N   0  0  0  0  0  0  0  0  0  0  0  0
   -1.8361    1.3201   -0.0365 C   0  0  0  0  0  0  0  0  0  0  0  0
   -0.4599    1.5916    0.1309 C   0  0  0  0  0  0  0  0  0  0  0  0
    0.5306    0.6172    0.0305 C   0  0  0  0  0  0  0  0  0  0  0  0
    0.2129   -0.7281   -0.2531 C   0  0  0  0  0  0  0  0  0  0  0  0
   -1.1065   -1.0854   -0.4328 C   0  0  0  0  0  0  0  0  0  0  0  0
   -2.9777    2.5213    0.1348 H   0  0  0  0  0  0  0  0  0  0  0  0
   -0.1567    2.6126    0.3529 H   0  0  0  0  0  0  0  0  0  0  0  0
    1.5737    0.8900    0.1729 H   0  0  0  0  0  0  0  0  0  0  0  0
    0.9957   -1.4753   -0.3294 H   0  0  0  0  0  0  0  0  0  0  0  0
   -1.4047   -2.1058   -0.6535 H   0  0  0  0  0  0  0  0  0  0  0  0
   -5.1435    2.9693    0.3589 S   0  0  0  0  0  0  0  0  0  0  0  0
   -3.6396    3.3783    0.2821 O   0  0  0  0  0  0  0  0  0  0  0  0
   -5.2683    1.5456    0.6590 O   0  0  0  0  0  0  0  0  0  0  0  0
   -5.8803    3.9677    1.1172 O   0  0  0  0  0  0  0  0  0  0  0  0
   -5.6402    3.0934   -1.2049 O   0  0  0  0  0  0  0  0  0  0  0  0
   -5.9178    4.0147   -1.3346 H   0  0  0  0  0  0  0  0  0  0  0  0
  1  4  1  0  0  0  0
  2  1  1  0  0  0  0
  3  2  1  0  0  0  0
  4  5  2  0  0  0  0
  5 10  1  0  0  0  0
  6  5  1  0  0  0  0
  6 11  1  0  0  0  0
  7  6  2  0  0  0  0
  8  1  2  0  0  0  0
  8  7  1  0  0  0  0
  9 15  1  0  0  0  0
 12  7  1  0  0  0  0
 13  8  1  0  0  0  0
 14 16  2  0  0  0  0
 14 17  2  0  0  0  0
 15 14  1  0  0  0  0
 18 14  1  0  0  0  0
 19 18  1  0  0  0  0
M  RAD  3   2   2   3   3   4   2
M  END
