Coordinates from ORCA-job PhN2+~HSO4-_B3LYPG-6-31G_dp-CH-Scan-d09-49-n800
 OpenBabel11261919183D

 19 18  0  0  0  0  0  0  0  0999 V2000
   -1.5544   -0.2859    0.0473 C   0  0  0  0  0  0  0  0  0  0  0  0
   -2.9118   -0.5331    0.2582 N   0  0  0  0  0  0  0  0  0  0  0  0
   -4.0028   -0.6731    0.4637 N   0  0  0  0  0  0  0  0  0  0  0  0
   -1.1562    0.9655    0.5411 C   0  0  0  0  0  0  0  0  0  0  0  0
    0.2374    1.1384    0.2945 C   0  0  0  0  0  0  0  0  0  0  0  0
    1.0389    0.1949   -0.3403 C   0  0  0  0  0  0  0  0  0  0  0  0
    0.5156   -1.0413   -0.7963 C   0  0  0  0  0  0  0  0  0  0  0  0
   -0.8207   -1.3131   -0.6072 C   0  0  0  0  0  0  0  0  0  0  0  0
   -4.4439    3.7663    1.3514 H   0  0  0  0  0  0  0  0  0  0  0  0
    0.7154    2.0644    0.6179 H   0  0  0  0  0  0  0  0  0  0  0  0
    2.0972    0.3976   -0.4985 H   0  0  0  0  0  0  0  0  0  0  0  0
    1.1602   -1.7640   -1.2862 H   0  0  0  0  0  0  0  0  0  0  0  0
   -1.2790   -2.2430   -0.9336 H   0  0  0  0  0  0  0  0  0  0  0  0
   -6.0355    3.2323    0.0224 S   0  0  0  0  0  0  0  0  0  0  0  0
   -5.3206    4.1421    1.1590 O   0  0  0  0  0  0  0  0  0  0  0  0
   -5.5411    1.8761    0.1225 O   0  0  0  0  0  0  0  0  0  0  0  0
   -7.4361    3.5922    0.0622 O   0  0  0  0  0  0  0  0  0  0  0  0
   -5.3852    3.8338   -1.3407 O   0  0  0  0  0  0  0  0  0  0  0  0
   -5.8928    4.6255   -1.5887 H   0  0  0  0  0  0  0  0  0  0  0  0
  1  2  1  0  0  0  0
  1  4  2  0  0  0  0
  2  3  1  0  0  0  0
  5  4  1  0  0  0  0
  5 10  1  0  0  0  0
  6  5  2  0  0  0  0
  7  8  2  0  0  0  0
  7  6  1  0  0  0  0
  8  1  1  0  0  0  0
 11  6  1  0  0  0  0
 12  7  1  0  0  0  0
 13  8  1  0  0  0  0
 14 17  2  0  0  0  0
 14 16  2  0  0  0  0
 14 15  1  0  0  0  0
 15  9  1  0  0  0  0
 18 14  1  0  0  0  0
 19 18  1  0  0  0  0
M  RAD  3   2   2   3   3   4   2
M  END
