Coordinates from ORCA-job PhN2+~HSO4-_B3LYPG-6-31G_dp-CH-Scan-d09-49-n800
 OpenBabel11261919183D

 19 18  0  0  0  0  0  0  0  0999 V2000
   -1.7453   -0.2493   -0.0544 C   0  0  0  0  0  0  0  0  0  0  0  0
   -3.0906   -0.5897    0.0640 N   0  0  0  0  0  0  0  0  0  0  0  0
   -4.1792   -0.8177    0.1798 N   0  0  0  0  0  0  0  0  0  0  0  0
   -1.4749    1.0804    0.3106 C   0  0  0  0  0  0  0  0  0  0  0  0
   -0.0814    1.3338    0.1646 C   0  0  0  0  0  0  0  0  0  0  0  0
    0.8397    0.3878   -0.2744 C   0  0  0  0  0  0  0  0  0  0  0  0
    0.4472   -0.9301   -0.6156 C   0  0  0  0  0  0  0  0  0  0  0  0
   -0.8797   -1.2818   -0.5098 C   0  0  0  0  0  0  0  0  0  0  0  0
   -3.9016    3.2873    1.0969 H   0  0  0  0  0  0  0  0  0  0  0  0
    0.2985    2.3262    0.4096 H   0  0  0  0  0  0  0  0  0  0  0  0
    1.8918    0.6537   -0.3633 H   0  0  0  0  0  0  0  0  0  0  0  0
    1.1820   -1.6527   -0.9551 H   0  0  0  0  0  0  0  0  0  0  0  0
   -1.2402   -2.2764   -0.7581 H   0  0  0  0  0  0  0  0  0  0  0  0
   -5.7894    3.1405    0.0971 S   0  0  0  0  0  0  0  0  0  0  0  0
   -4.7236    3.8108    1.1099 O   0  0  0  0  0  0  0  0  0  0  0  0
   -5.5807    1.7086    0.0522 O   0  0  0  0  0  0  0  0  0  0  0  0
   -7.0608    3.7600    0.4041 O   0  0  0  0  0  0  0  0  0  0  0  0
   -5.2800    3.6958   -1.3452 O   0  0  0  0  0  0  0  0  0  0  0  0
   -5.6474    4.5881   -1.4644 H   0  0  0  0  0  0  0  0  0  0  0  0
  1  2  1  0  0  0  0
  1  4  2  0  0  0  0
  2  3  1  0  0  0  0
  5  4  1  0  0  0  0
  5 10  1  0  0  0  0
  6  5  2  0  0  0  0
  7  8  2  0  0  0  0
  7  6  1  0  0  0  0
  8  1  1  0  0  0  0
  9 15  1  0  0  0  0
 11  6  1  0  0  0  0
 12  7  1  0  0  0  0
 13  8  1  0  0  0  0
 14 17  2  0  0  0  0
 14 15  1  0  0  0  0
 16 14  2  0  0  0  0
 18 14  1  0  0  0  0
 19 18  1  0  0  0  0
M  RAD  3   2   2   3   3   4   2
M  END
