Coordinates from ORCA-job PhN2+~HSO4-_B3LYPG-6-31G_dp-CH-Scan-d09-49-n800
 OpenBabel11261919183D

 19 18  0  0  0  0  0  0  0  0999 V2000
   -2.0617   -0.0552   -0.2832 C   0  0  0  0  0  0  0  0  0  0  0  0
   -3.3846   -0.4443   -0.4340 N   0  0  0  0  0  0  0  0  0  0  0  0
   -4.4568   -0.7295   -0.5495 N   0  0  0  0  0  0  0  0  0  0  0  0
   -1.8459    1.3069   -0.0010 C   0  0  0  0  0  0  0  0  0  0  0  0
   -0.4673    1.5896    0.1308 C   0  0  0  0  0  0  0  0  0  0  0  0
    0.5300    0.6265   -0.0054 C   0  0  0  0  0  0  0  0  0  0  0  0
    0.2185   -0.7198   -0.2920 C   0  0  0  0  0  0  0  0  0  0  0  0
   -1.1016   -1.0888   -0.4384 C   0  0  0  0  0  0  0  0  0  0  0  0
   -3.0102    2.5278    0.2160 H   0  0  0  0  0  0  0  0  0  0  0  0
   -0.1670    2.6115    0.3532 H   0  0  0  0  0  0  0  0  0  0  0  0
    1.5739    0.9090    0.1103 H   0  0  0  0  0  0  0  0  0  0  0  0
    1.0065   -1.4581   -0.3964 H   0  0  0  0  0  0  0  0  0  0  0  0
   -1.3958   -2.1102   -0.6600 H   0  0  0  0  0  0  0  0  0  0  0  0
   -5.1747    2.9696    0.3509 S   0  0  0  0  0  0  0  0  0  0  0  0
   -3.6635    3.3685    0.3970 O   0  0  0  0  0  0  0  0  0  0  0  0
   -5.3340    1.5450    0.6244 O   0  0  0  0  0  0  0  0  0  0  0  0
   -5.9525    3.9700    1.0629 O   0  0  0  0  0  0  0  0  0  0  0  0
   -5.5459    3.1136   -1.2445 O   0  0  0  0  0  0  0  0  0  0  0  0
   -5.7830    4.0435   -1.3924 H   0  0  0  0  0  0  0  0  0  0  0  0
  1  4  2  0  0  0  0
  2  1  1  0  0  0  0
  3  2  1  0  0  0  0
  4  5  1  0  0  0  0
  5 10  1  0  0  0  0
  6 11  1  0  0  0  0
  6  5  2  0  0  0  0
  7  6  1  0  0  0  0
  8  7  2  0  0  0  0
  8  1  1  0  0  0  0
  9 15  1  0  0  0  0
 12  7  1  0  0  0  0
 13  8  1  0  0  0  0
 14 15  1  0  0  0  0
 14 16  2  0  0  0  0
 14 17  2  0  0  0  0
 18 14  1  0  0  0  0
 19 18  1  0  0  0  0
M  RAD  3   2   2   3   3   4   2
M  END
