Coordinates from ORCA-job PhN2+~HSO4-_B3LYPG-6-31G_dp-CH-Scan-d09-49-n800
 OpenBabel11261919183D

 19 18  0  0  0  0  0  0  0  0999 V2000
   -1.6065   -0.2820   -0.0011 C   0  0  0  0  0  0  0  0  0  0  0  0
   -2.9637   -0.5560    0.1706 N   0  0  0  0  0  0  0  0  0  0  0  0
   -4.0576   -0.7201    0.3388 N   0  0  0  0  0  0  0  0  0  0  0  0
   -1.2563    1.0036    0.4399 C   0  0  0  0  0  0  0  0  0  0  0  0
    0.1410    1.1989    0.2358 C   0  0  0  0  0  0  0  0  0  0  0  0
    0.9887    0.2442   -0.3169 C   0  0  0  0  0  0  0  0  0  0  0  0
    0.5127   -1.0270   -0.7256 C   0  0  0  0  0  0  0  0  0  0  0  0
   -0.8231   -1.3224   -0.5723 C   0  0  0  0  0  0  0  0  0  0  0  0
   -4.2879    3.6571    1.2968 H   0  0  0  0  0  0  0  0  0  0  0  0
    0.5842    2.1525    0.5269 H   0  0  0  0  0  0  0  0  0  0  0  0
    2.0473    0.4655   -0.4457 H   0  0  0  0  0  0  0  0  0  0  0  0
    1.1924   -1.7578   -1.1520 H   0  0  0  0  0  0  0  0  0  0  0  0
   -1.2464   -2.2792   -0.8662 H   0  0  0  0  0  0  0  0  0  0  0  0
   -5.9744    3.2156    0.0532 S   0  0  0  0  0  0  0  0  0  0  0  0
   -5.1596    4.0689    1.1647 O   0  0  0  0  0  0  0  0  0  0  0  0
   -5.5453    1.8346    0.1059 O   0  0  0  0  0  0  0  0  0  0  0  0
   -7.3516    3.6427    0.1706 O   0  0  0  0  0  0  0  0  0  0  0  0
   -5.3653    3.8079   -1.3331 O   0  0  0  0  0  0  0  0  0  0  0  0
   -5.8443    4.6283   -1.5415 H   0  0  0  0  0  0  0  0  0  0  0  0
  1  2  1  0  0  0  0
  1  4  2  0  0  0  0
  2  3  1  0  0  0  0
  5  4  1  0  0  0  0
  5 10  1  0  0  0  0
  6  5  2  0  0  0  0
  7  8  2  0  0  0  0
  7  6  1  0  0  0  0
  8  1  1  0  0  0  0
 11  6  1  0  0  0  0
 12  7  1  0  0  0  0
 13  8  1  0  0  0  0
 14 16  2  0  0  0  0
 14 17  2  0  0  0  0
 14 15  1  0  0  0  0
 15  9  1  0  0  0  0
 18 14  1  0  0  0  0
 19 18  1  0  0  0  0
M  RAD  3   2   2   3   3   4   2
M  END
