Coordinates from ORCA-job PhN2+~HSO4-_B3LYPG-6-31G_dp-CH-Scan-d09-49-n800
 OpenBabel11261919183D

 19 18  0  0  0  0  0  0  0  0999 V2000
   -1.7646   -0.2439   -0.0532 C   0  0  0  0  0  0  0  0  0  0  0  0
   -3.1072   -0.5938    0.0653 N   0  0  0  0  0  0  0  0  0  0  0  0
   -4.1937   -0.8314    0.1799 N   0  0  0  0  0  0  0  0  0  0  0  0
   -1.5017    1.0890    0.3061 C   0  0  0  0  0  0  0  0  0  0  0  0
   -0.1101    1.3508    0.1602 C   0  0  0  0  0  0  0  0  0  0  0  0
    0.8173    0.4087   -0.2741 C   0  0  0  0  0  0  0  0  0  0  0  0
    0.4332   -0.9128   -0.6099 C   0  0  0  0  0  0  0  0  0  0  0  0
   -0.8916   -1.2724   -0.5035 C   0  0  0  0  0  0  0  0  0  0  0  0
   -3.8610    3.2373    1.0785 H   0  0  0  0  0  0  0  0  0  0  0  0
    0.2630    2.3467    0.4013 H   0  0  0  0  0  0  0  0  0  0  0  0
    1.8677    0.6809   -0.3633 H   0  0  0  0  0  0  0  0  0  0  0  0
    1.1727   -1.6323   -0.9459 H   0  0  0  0  0  0  0  0  0  0  0  0
   -1.2455   -2.2703   -0.7479 H   0  0  0  0  0  0  0  0  0  0  0  0
   -5.7607    3.1270    0.0969 S   0  0  0  0  0  0  0  0  0  0  0  0
   -4.6760    3.7720    1.1046 O   0  0  0  0  0  0  0  0  0  0  0  0
   -5.5793    1.6915    0.0415 O   0  0  0  0  0  0  0  0  0  0  0  0
   -7.0188    3.7669    0.4169 O   0  0  0  0  0  0  0  0  0  0  0  0
   -5.2532    3.6811   -1.3468 O   0  0  0  0  0  0  0  0  0  0  0  0
   -5.6059    4.5804   -1.4578 H   0  0  0  0  0  0  0  0  0  0  0  0
  1  2  1  0  0  0  0
  1  4  2  0  0  0  0
  2  3  1  0  0  0  0
  5  4  1  0  0  0  0
  5 10  1  0  0  0  0
  6  5  2  0  0  0  0
  7  8  2  0  0  0  0
  7  6  1  0  0  0  0
  8  1  1  0  0  0  0
  9 15  1  0  0  0  0
 11  6  1  0  0  0  0
 12  7  1  0  0  0  0
 13  8  1  0  0  0  0
 14 17  2  0  0  0  0
 14 15  1  0  0  0  0
 16 14  2  0  0  0  0
 18 14  1  0  0  0  0
 19 18  1  0  0  0  0
M  RAD  3   2   2   3   3   4   2
M  END
