Coordinates from ORCA-job PhN2+~HSO4-_B3LYPG-6-31G_dp-CH-Scan-d09-49-n800
 OpenBabel11261919183D

 19 18  0  0  0  0  0  0  0  0999 V2000
   -2.0663   -0.0004   -0.3804 C   0  0  0  0  0  0  0  0  0  0  0  0
   -3.3836   -0.3397   -0.6438 N   0  0  0  0  0  0  0  0  0  0  0  0
   -4.4567   -0.5690   -0.8381 N   0  0  0  0  0  0  0  0  0  0  0  0
   -1.8026    1.3578   -0.1312 C   0  0  0  0  0  0  0  0  0  0  0  0
   -0.4447    1.6138    0.1255 C   0  0  0  0  0  0  0  0  0  0  0  0
    0.5210    0.6081    0.1261 C   0  0  0  0  0  0  0  0  0  0  0  0
    0.1822   -0.7341   -0.1362 C   0  0  0  0  0  0  0  0  0  0  0  0
   -1.1324   -1.0641   -0.3987 C   0  0  0  0  0  0  0  0  0  0  0  0
   -2.8182    2.4005   -0.1090 H   0  0  0  0  0  0  0  0  0  0  0  0
   -0.1403    2.6359    0.3350 H   0  0  0  0  0  0  0  0  0  0  0  0
    1.5585    0.8572    0.3334 H   0  0  0  0  0  0  0  0  0  0  0  0
    0.9450   -1.5053   -0.1320 H   0  0  0  0  0  0  0  0  0  0  0  0
   -1.4417   -2.0835   -0.6059 H   0  0  0  0  0  0  0  0  0  0  0  0
   -5.0399    2.9514    0.3346 S   0  0  0  0  0  0  0  0  0  0  0  0
   -3.6177    3.3480   -0.0879 O   0  0  0  0  0  0  0  0  0  0  0  0
   -5.0999    1.5182    0.6521 O   0  0  0  0  0  0  0  0  0  0  0  0
   -5.6235    3.9180    1.2593 O   0  0  0  0  0  0  0  0  0  0  0  0
   -5.9036    3.0785   -1.0682 O   0  0  0  0  0  0  0  0  0  0  0  0
   -6.2513    3.9841   -1.0859 H   0  0  0  0  0  0  0  0  0  0  0  0
  1  4  1  0  0  0  0
  2  1  1  0  0  0  0
  3  2  1  0  0  0  0
  4  5  2  0  0  0  0
  5  6  1  0  0  0  0
  5 10  1  0  0  0  0
  6 11  1  0  0  0  0
  7 12  1  0  0  0  0
  7  6  2  0  0  0  0
  8  1  2  0  0  0  0
  8  7  1  0  0  0  0
  9 15  1  0  0  0  0
 13  8  1  0  0  0  0
 14 16  2  0  0  0  0
 14 17  2  0  0  0  0
 15 14  1  0  0  0  0
 18 14  1  0  0  0  0
 19 18  1  0  0  0  0
M  RAD  3   2   2   3   3   4   2
M  END
