Coordinates from ORCA-job PhN2+~HSO4-_B3LYPG-6-31G_dp-CH-Scan-d09-49-n800
 OpenBabel11261919183D

 19 18  0  0  0  0  0  0  0  0999 V2000
   -1.6819   -0.2657   -0.0452 C   0  0  0  0  0  0  0  0  0  0  0  0
   -3.0349   -0.5751    0.0856 N   0  0  0  0  0  0  0  0  0  0  0  0
   -4.1282   -0.7731    0.2149 N   0  0  0  0  0  0  0  0  0  0  0  0
   -1.3811    1.0487    0.3472 C   0  0  0  0  0  0  0  0  0  0  0  0
    0.0167    1.2743    0.1883 C   0  0  0  0  0  0  0  0  0  0  0  0
    0.9111    0.3192   -0.2847 C   0  0  0  0  0  0  0  0  0  0  0  0
    0.4855   -0.9820   -0.6512 C   0  0  0  0  0  0  0  0  0  0  0  0
   -0.8473   -1.3073   -0.5360 C   0  0  0  0  0  0  0  0  0  0  0  0
   -4.0594    3.4669    1.1809 H   0  0  0  0  0  0  0  0  0  0  0  0
    0.4222    2.2523    0.4510 H   0  0  0  0  0  0  0  0  0  0  0  0
    1.9677    0.5642   -0.3817 H   0  0  0  0  0  0  0  0  0  0  0  0
    1.2003   -1.7121   -1.0168 H   0  0  0  0  0  0  0  0  0  0  0  0
   -1.2329   -2.2879   -0.8018 H   0  0  0  0  0  0  0  0  0  0  0  0
   -5.8778    3.1793    0.0877 S   0  0  0  0  0  0  0  0  0  0  0  0
   -4.9078    3.9421    1.1352 O   0  0  0  0  0  0  0  0  0  0  0  0
   -5.5652    1.7660    0.0850 O   0  0  0  0  0  0  0  0  0  0  0  0
   -7.2010    3.7145    0.3248 O   0  0  0  0  0  0  0  0  0  0  0  0
   -5.3397    3.7444   -1.3395 O   0  0  0  0  0  0  0  0  0  0  0  0
   -5.7618    4.6065   -1.4949 H   0  0  0  0  0  0  0  0  0  0  0  0
  1  2  1  0  0  0  0
  1  4  2  0  0  0  0
  2  3  1  0  0  0  0
  5  4  1  0  0  0  0
  5 10  1  0  0  0  0
  6  5  2  0  0  0  0
  7  8  2  0  0  0  0
  7  6  1  0  0  0  0
  8  1  1  0  0  0  0
 11  6  1  0  0  0  0
 12  7  1  0  0  0  0
 13  8  1  0  0  0  0
 14 17  2  0  0  0  0
 14 15  1  0  0  0  0
 15  9  1  0  0  0  0
 16 14  2  0  0  0  0
 18 14  1  0  0  0  0
 19 18  1  0  0  0  0
M  RAD  3   2   2   3   3   4   2
M  END
