Coordinates from ORCA-job PhN2+~HSO4-_B3LYPG-6-31G_dp-CH-Scan-d09-49-n800
 OpenBabel11261919183D

 19 18  0  0  0  0  0  0  0  0999 V2000
   -1.7526   -0.2474   -0.0537 C   0  0  0  0  0  0  0  0  0  0  0  0
   -3.0968   -0.5917    0.0651 N   0  0  0  0  0  0  0  0  0  0  0  0
   -4.1848   -0.8236    0.1785 N   0  0  0  0  0  0  0  0  0  0  0  0
   -1.4853    1.0837    0.3085 C   0  0  0  0  0  0  0  0  0  0  0  0
   -0.0926    1.3405    0.1624 C   0  0  0  0  0  0  0  0  0  0  0  0
    0.8310    0.3960   -0.2746 C   0  0  0  0  0  0  0  0  0  0  0  0
    0.4419   -0.9235   -0.6131 C   0  0  0  0  0  0  0  0  0  0  0  0
   -0.8841   -1.2784   -0.5069 C   0  0  0  0  0  0  0  0  0  0  0  0
   -3.8861    3.2673    1.0900 H   0  0  0  0  0  0  0  0  0  0  0  0
    0.2845    2.3344    0.4055 H   0  0  0  0  0  0  0  0  0  0  0  0
    1.8825    0.6645   -0.3638 H   0  0  0  0  0  0  0  0  0  0  0  0
    1.1786   -1.6449   -0.9511 H   0  0  0  0  0  0  0  0  0  0  0  0
   -1.2419   -2.2745   -0.7531 H   0  0  0  0  0  0  0  0  0  0  0  0
   -5.7786    3.1355    0.0969 S   0  0  0  0  0  0  0  0  0  0  0  0
   -4.7054    3.7954    1.1083 O   0  0  0  0  0  0  0  0  0  0  0  0
   -5.5808    1.7021    0.0475 O   0  0  0  0  0  0  0  0  0  0  0  0
   -7.0448    3.7631    0.4090 O   0  0  0  0  0  0  0  0  0  0  0  0
   -5.2695    3.6907   -1.3455 O   0  0  0  0  0  0  0  0  0  0  0  0
   -5.6308    4.5860   -1.4612 H   0  0  0  0  0  0  0  0  0  0  0  0
  1  2  1  0  0  0  0
  1  4  2  0  0  0  0
  2  3  1  0  0  0  0
  5  4  1  0  0  0  0
  5 10  1  0  0  0  0
  6  5  2  0  0  0  0
  7  8  2  0  0  0  0
  7  6  1  0  0  0  0
  8  1  1  0  0  0  0
  9 15  1  0  0  0  0
 11  6  1  0  0  0  0
 12  7  1  0  0  0  0
 13  8  1  0  0  0  0
 14 17  2  0  0  0  0
 14 15  1  0  0  0  0
 16 14  2  0  0  0  0
 18 14  1  0  0  0  0
 19 18  1  0  0  0  0
M  RAD  3   2   2   3   3   4   2
M  END
