Coordinates from ORCA-job PhN2+~HSO4-_B3LYPG-6-31G_dp-CH-Scan-d09-49-n800
 OpenBabel11261919183D

 19 18  0  0  0  0  0  0  0  0999 V2000
   -1.8867   -0.2059   -0.0580 C   0  0  0  0  0  0  0  0  0  0  0  0
   -3.2126   -0.6100    0.0469 N   0  0  0  0  0  0  0  0  0  0  0  0
   -4.2869   -0.9012    0.1452 N   0  0  0  0  0  0  0  0  0  0  0  0
   -1.6696    1.1472    0.2588 C   0  0  0  0  0  0  0  0  0  0  0  0
   -0.2894    1.4580    0.1290 C   0  0  0  0  0  0  0  0  0  0  0  0
    0.6792    0.5360   -0.2570 C   0  0  0  0  0  0  0  0  0  0  0  0
    0.3482   -0.8074   -0.5544 C   0  0  0  0  0  0  0  0  0  0  0  0
   -0.9648   -1.2115   -0.4583 C   0  0  0  0  0  0  0  0  0  0  0  0
   -3.5870    2.9032    0.8971 H   0  0  0  0  0  0  0  0  0  0  0  0
    0.0403    2.4742    0.3432 H   0  0  0  0  0  0  0  0  0  0  0  0
    1.7202    0.8438   -0.3365 H   0  0  0  0  0  0  0  0  0  0  0  0
    1.1181   -1.5107   -0.8542 H   0  0  0  0  0  0  0  0  0  0  0  0
   -1.2771   -2.2290   -0.6758 H   0  0  0  0  0  0  0  0  0  0  0  0
   -5.5750    3.0427    0.1098 S   0  0  0  0  0  0  0  0  0  0  0  0
   -4.3488    3.5094    1.0346 O   0  0  0  0  0  0  0  0  0  0  0  0
   -5.5776    1.5989   -0.0198 O   0  0  0  0  0  0  0  0  0  0  0  0
   -6.7240    3.8024    0.5574 O   0  0  0  0  0  0  0  0  0  0  0  0
   -5.1340    3.5991   -1.3575 O   0  0  0  0  0  0  0  0  0  0  0  0
   -5.3880    4.5363   -1.4018 H   0  0  0  0  0  0  0  0  0  0  0  0
  1  2  1  0  0  0  0
  1  4  2  0  0  0  0
  2  3  1  0  0  0  0
  5  4  1  0  0  0  0
  5 10  1  0  0  0  0
  6  5  2  0  0  0  0
  7  8  2  0  0  0  0
  7  6  1  0  0  0  0
  8  1  1  0  0  0  0
  9 15  1  0  0  0  0
 11  6  1  0  0  0  0
 12  7  1  0  0  0  0
 13  8  1  0  0  0  0
 14 17  2  0  0  0  0
 14 15  1  0  0  0  0
 16 14  2  0  0  0  0
 18 14  1  0  0  0  0
 19 18  1  0  0  0  0
M  RAD  3   2   2   3   3   4   2
M  END
