Coordinates from ORCA-job PhN2+~HSO4-_B3LYPG-6-31G_dp-CH-Scan-d09-49-n800
 OpenBabel11261919183D

 19 18  0  0  0  0  0  0  0  0999 V2000
   -1.8073   -0.2311   -0.0498 C   0  0  0  0  0  0  0  0  0  0  0  0
   -3.1436   -0.6011    0.0686 N   0  0  0  0  0  0  0  0  0  0  0  0
   -4.2255   -0.8588    0.1814 N   0  0  0  0  0  0  0  0  0  0  0  0
   -1.5595    1.1079    0.2993 C   0  0  0  0  0  0  0  0  0  0  0  0
   -0.1722    1.3875    0.1532 C   0  0  0  0  0  0  0  0  0  0  0  0
    0.7679    0.4542   -0.2730 C   0  0  0  0  0  0  0  0  0  0  0  0
    0.4011   -0.8743   -0.5992 C   0  0  0  0  0  0  0  0  0  0  0  0
   -0.9191   -1.2502   -0.4914 C   0  0  0  0  0  0  0  0  0  0  0  0
   -3.7729    3.1307    1.0364 H   0  0  0  0  0  0  0  0  0  0  0  0
    0.1869    2.3899    0.3873 H   0  0  0  0  0  0  0  0  0  0  0  0
    1.8147    0.7395   -0.3630 H   0  0  0  0  0  0  0  0  0  0  0  0
    1.1500   -1.5868   -0.9293 H   0  0  0  0  0  0  0  0  0  0  0  0
   -1.2594   -2.2543   -0.7289 H   0  0  0  0  0  0  0  0  0  0  0  0
   -5.6964    3.0962    0.0969 S   0  0  0  0  0  0  0  0  0  0  0  0
   -4.5732    3.6882    1.0910 O   0  0  0  0  0  0  0  0  0  0  0  0
   -5.5730    1.6551    0.0220 O   0  0  0  0  0  0  0  0  0  0  0  0
   -6.9251    3.7786    0.4439 O   0  0  0  0  0  0  0  0  0  0  0  0
   -5.1940    3.6457   -1.3509 O   0  0  0  0  0  0  0  0  0  0  0  0
   -5.5150    4.5585   -1.4460 H   0  0  0  0  0  0  0  0  0  0  0  0
  1  2  1  0  0  0  0
  1  4  2  0  0  0  0
  2  3  1  0  0  0  0
  5  4  1  0  0  0  0
  5 10  1  0  0  0  0
  6  5  2  0  0  0  0
  7  8  2  0  0  0  0
  7  6  1  0  0  0  0
  8  1  1  0  0  0  0
  9 15  1  0  0  0  0
 11  6  1  0  0  0  0
 12  7  1  0  0  0  0
 13  8  1  0  0  0  0
 14 17  2  0  0  0  0
 14 15  1  0  0  0  0
 16 14  2  0  0  0  0
 18 14  1  0  0  0  0
 19 18  1  0  0  0  0
M  RAD  3   2   2   3   3   4   2
M  END
