Coordinates from ORCA-job PhN2+~HSO4-_B3LYPG-6-31G_dp-CH-Scan-d09-49-n800
 OpenBabel11261919183D

 19 18  0  0  0  0  0  0  0  0999 V2000
   -1.7219   -0.2586    0.8476 C   0  0  0  0  0  0  0  0  0  0  0  0
   -2.8499   -0.8838    1.3871 N   0  0  0  0  0  0  0  0  0  0  0  0
   -3.7038   -1.4035    1.8882 N   0  0  0  0  0  0  0  0  0  0  0  0
   -0.6027   -0.3841    1.6820 C   0  0  0  0  0  0  0  0  0  0  0  0
    0.4965    0.3072    1.0853 C   0  0  0  0  0  0  0  0  0  0  0  0
    0.4238    0.9915   -0.1225 C   0  0  0  0  0  0  0  0  0  0  0  0
   -0.7713    1.0259   -0.8890 C   0  0  0  0  0  0  0  0  0  0  0  0
   -1.8931    0.3813   -0.4115 C   0  0  0  0  0  0  0  0  0  0  0  0
   -3.1112    2.9615   -0.4850 H   0  0  0  0  0  0  0  0  0  0  0  0
    1.4566    0.3069    1.6034 H   0  0  0  0  0  0  0  0  0  0  0  0
    1.3013    1.5064   -0.5104 H   0  0  0  0  0  0  0  0  0  0  0  0
   -0.7896    1.5257   -1.8528 H   0  0  0  0  0  0  0  0  0  0  0  0
   -2.8282    0.3359   -0.9622 H   0  0  0  0  0  0  0  0  0  0  0  0
   -5.2192    2.5654   -0.5144 S   0  0  0  0  0  0  0  0  0  0  0  0
   -3.9086    3.5134   -0.5858 O   0  0  0  0  0  0  0  0  0  0  0  0
   -4.9305    1.4160    0.3196 O   0  0  0  0  0  0  0  0  0  0  0  0
   -6.3391    3.4556   -0.3107 O   0  0  0  0  0  0  0  0  0  0  0  0
   -5.2829    1.9799   -2.0317 O   0  0  0  0  0  0  0  0  0  0  0  0
   -5.7416    2.6326   -2.5884 H   0  0  0  0  0  0  0  0  0  0  0  0
  1  2  1  0  0  0  0
  1  4  2  0  0  0  0
  2  3  1  0  0  0  0
  5 10  1  0  0  0  0
  5  4  1  0  0  0  0
  6  5  2  0  0  0  0
  7  8  2  0  0  0  0
  7  6  1  0  0  0  0
  8  1  1  0  0  0  0
 11  6  1  0  0  0  0
 12  7  1  0  0  0  0
 13  8  1  0  0  0  0
 14 17  2  0  0  0  0
 14 16  2  0  0  0  0
 15 14  1  0  0  0  0
 15  9  1  0  0  0  0
 18 14  1  0  0  0  0
 19 18  1  0  0  0  0
M  RAD  3   2   2   3   3   4   2
M  END
