Coordinates from ORCA-job PhN2+~HSO4-_B3LYPG-6-31G_dp-CH-Scan-d09-49-n800
 OpenBabel11261919183D

 19 18  0  0  0  0  0  0  0  0999 V2000
   -1.7340   -0.2523   -0.0544 C   0  0  0  0  0  0  0  0  0  0  0  0
   -3.0809   -0.5871    0.0647 N   0  0  0  0  0  0  0  0  0  0  0  0
   -4.1706   -0.8097    0.1816 N   0  0  0  0  0  0  0  0  0  0  0  0
   -1.4588    1.0752    0.3146 C   0  0  0  0  0  0  0  0  0  0  0  0
   -0.0643    1.3236    0.1678 C   0  0  0  0  0  0  0  0  0  0  0  0
    0.8527    0.3755   -0.2751 C   0  0  0  0  0  0  0  0  0  0  0  0
    0.4549   -0.9399   -0.6199 C   0  0  0  0  0  0  0  0  0  0  0  0
   -0.8732   -1.2870   -0.5139 C   0  0  0  0  0  0  0  0  0  0  0  0
   -3.9268    3.3180    1.1093 H   0  0  0  0  0  0  0  0  0  0  0  0
    0.3197    2.3138    0.4155 H   0  0  0  0  0  0  0  0  0  0  0  0
    1.9058    0.6377   -0.3643 H   0  0  0  0  0  0  0  0  0  0  0  0
    1.1867   -1.6642   -0.9624 H   0  0  0  0  0  0  0  0  0  0  0  0
   -1.2377   -2.2794   -0.7647 H   0  0  0  0  0  0  0  0  0  0  0  0
   -5.8058    3.1481    0.0966 S   0  0  0  0  0  0  0  0  0  0  0  0
   -4.7531    3.8341    1.1136 O   0  0  0  0  0  0  0  0  0  0  0  0
   -5.5800    1.7186    0.0585 O   0  0  0  0  0  0  0  0  0  0  0  0
   -7.0856    3.7544    0.3944 O   0  0  0  0  0  0  0  0  0  0  0  0
   -5.2940    3.7043   -1.3442 O   0  0  0  0  0  0  0  0  0  0  0  0
   -5.6706    4.5920   -1.4689 H   0  0  0  0  0  0  0  0  0  0  0  0
  1  2  1  0  0  0  0
  1  4  2  0  0  0  0
  2  3  1  0  0  0  0
  5  4  1  0  0  0  0
  5 10  1  0  0  0  0
  6  5  2  0  0  0  0
  7  8  2  0  0  0  0
  7  6  1  0  0  0  0
  8  1  1  0  0  0  0
  9 15  1  0  0  0  0
 11  6  1  0  0  0  0
 12  7  1  0  0  0  0
 13  8  1  0  0  0  0
 14 17  2  0  0  0  0
 14 15  1  0  0  0  0
 16 14  2  0  0  0  0
 18 14  1  0  0  0  0
 19 18  1  0  0  0  0
M  RAD  3   2   2   3   3   4   2
M  END
