Coordinates from ORCA-job PhN2+~HSO4-_B3LYPG-6-31G_dp-CH-Scan-d09-49-n800
 OpenBabel11261919183D

 19 18  0  0  0  0  0  0  0  0999 V2000
   -1.5481   -0.2855    0.0613 C   0  0  0  0  0  0  0  0  0  0  0  0
   -2.9045   -0.5288    0.2836 N   0  0  0  0  0  0  0  0  0  0  0  0
   -3.9939   -0.6654    0.4994 N   0  0  0  0  0  0  0  0  0  0  0  0
   -1.1395    0.9570    0.5686 C   0  0  0  0  0  0  0  0  0  0  0  0
    0.2521    1.1278    0.3096 C   0  0  0  0  0  0  0  0  0  0  0  0
    1.0428    0.1902   -0.3470 C   0  0  0  0  0  0  0  0  0  0  0  0
    0.5093   -1.0372   -0.8150 C   0  0  0  0  0  0  0  0  0  0  0  0
   -0.8260   -1.3063   -0.6155 C   0  0  0  0  0  0  0  0  0  0  0  0
   -4.4708    3.7822    1.3622 H   0  0  0  0  0  0  0  0  0  0  0  0
    0.7374    2.0472    0.6411 H   0  0  0  0  0  0  0  0  0  0  0  0
    2.1002    0.3908   -0.5137 H   0  0  0  0  0  0  0  0  0  0  0  0
    1.1457   -1.7555   -1.3220 H   0  0  0  0  0  0  0  0  0  0  0  0
   -1.2917   -2.2296   -0.9501 H   0  0  0  0  0  0  0  0  0  0  0  0
   -6.0395    3.2305    0.0142 S   0  0  0  0  0  0  0  0  0  0  0  0
   -5.3468    4.1516    1.1556 O   0  0  0  0  0  0  0  0  0  0  0  0
   -5.5348    1.8792    0.1276 O   0  0  0  0  0  0  0  0  0  0  0  0
   -7.4434    3.5788    0.0338 O   0  0  0  0  0  0  0  0  0  0  0  0
   -5.3765    3.8310   -1.3432 O   0  0  0  0  0  0  0  0  0  0  0  0
   -5.8876    4.6171   -1.6019 H   0  0  0  0  0  0  0  0  0  0  0  0
  1  2  1  0  0  0  0
  1  4  2  0  0  0  0
  2  3  1  0  0  0  0
  5  4  1  0  0  0  0
  5 10  1  0  0  0  0
  6  5  2  0  0  0  0
  7  8  2  0  0  0  0
  7  6  1  0  0  0  0
  8  1  1  0  0  0  0
 11  6  1  0  0  0  0
 12  7  1  0  0  0  0
 13  8  1  0  0  0  0
 14 17  2  0  0  0  0
 14 16  2  0  0  0  0
 14 15  1  0  0  0  0
 15  9  1  0  0  0  0
 18 14  1  0  0  0  0
 19 18  1  0  0  0  0
M  RAD  3   2   2   3   3   4   2
M  END
