Coordinates from ORCA-job PhN2+~HSO4-_B3LYPG-6-31G_dp-CH-Scan-d09-49-n800
 OpenBabel11261919183D

 19 18  0  0  0  0  0  0  0  0999 V2000
   -1.7100   -0.2471    0.8512 C   0  0  0  0  0  0  0  0  0  0  0  0
   -2.8476   -0.8541    1.3912 N   0  0  0  0  0  0  0  0  0  0  0  0
   -3.7091   -1.3607    1.8926 N   0  0  0  0  0  0  0  0  0  0  0  0
   -0.5920   -0.3940    1.6838 C   0  0  0  0  0  0  0  0  0  0  0  0
    0.5192    0.2761    1.0857 C   0  0  0  0  0  0  0  0  0  0  0  0
    0.4578    0.9602   -0.1230 C   0  0  0  0  0  0  0  0  0  0  0  0
   -0.7379    1.0188   -0.8866 C   0  0  0  0  0  0  0  0  0  0  0  0
   -1.8714    0.3973   -0.4068 C   0  0  0  0  0  0  0  0  0  0  0  0
   -3.1611    3.0194   -0.4710 H   0  0  0  0  0  0  0  0  0  0  0  0
    1.4798    0.2582    1.6026 H   0  0  0  0  0  0  0  0  0  0  0  0
    1.3448    1.4571   -0.5130 H   0  0  0  0  0  0  0  0  0  0  0  0
   -0.7489    1.5213   -1.8491 H   0  0  0  0  0  0  0  0  0  0  0  0
   -2.8090    0.3724   -0.9545 H   0  0  0  0  0  0  0  0  0  0  0  0
   -5.2552    2.5595   -0.5220 S   0  0  0  0  0  0  0  0  0  0  0  0
   -3.9732    3.5477   -0.5770 O   0  0  0  0  0  0  0  0  0  0  0  0
   -4.9346    1.4114    0.3022 O   0  0  0  0  0  0  0  0  0  0  0  0
   -6.4026    3.4130   -0.3150 O   0  0  0  0  0  0  0  0  0  0  0  0
   -5.2935    1.9880   -2.0451 O   0  0  0  0  0  0  0  0  0  0  0  0
   -5.7712    2.6308   -2.5973 H   0  0  0  0  0  0  0  0  0  0  0  0
  1  2  1  0  0  0  0
  1  4  2  0  0  0  0
  2  3  1  0  0  0  0
  5 10  1  0  0  0  0
  5  4  1  0  0  0  0
  6  5  2  0  0  0  0
  7  8  2  0  0  0  0
  7  6  1  0  0  0  0
  8  1  1  0  0  0  0
 11  6  1  0  0  0  0
 12  7  1  0  0  0  0
 13  8  1  0  0  0  0
 14 17  2  0  0  0  0
 14 16  2  0  0  0  0
 15 14  1  0  0  0  0
 15  9  1  0  0  0  0
 18 14  1  0  0  0  0
 19 18  1  0  0  0  0
M  RAD  3   2   2   3   3   4   2
M  END
