Coordinates from ORCA-job PhN2+~HSO4-_B3LYPG-6-31G_dp-CH-Scan-d09-49-n800
 OpenBabel11261919183D

 19 18  0  0  0  0  0  0  0  0999 V2000
   -1.9374   -0.1910   -0.0581 C   0  0  0  0  0  0  0  0  0  0  0  0
   -3.2558   -0.6176    0.0429 N   0  0  0  0  0  0  0  0  0  0  0  0
   -4.3239   -0.9306    0.1352 N   0  0  0  0  0  0  0  0  0  0  0  0
   -1.7390    1.1692    0.2412 C   0  0  0  0  0  0  0  0  0  0  0  0
   -0.3645    1.5010    0.1165 C   0  0  0  0  0  0  0  0  0  0  0  0
    0.6207    0.5888   -0.2509 C   0  0  0  0  0  0  0  0  0  0  0  0
    0.3116   -0.7626   -0.5324 C   0  0  0  0  0  0  0  0  0  0  0  0
   -0.9960   -1.1854   -0.4391 C   0  0  0  0  0  0  0  0  0  0  0  0
   -3.4816    2.7636    0.8202 H   0  0  0  0  0  0  0  0  0  0  0  0
   -0.0535    2.5250    0.3196 H   0  0  0  0  0  0  0  0  0  0  0  0
    1.6572    0.9116   -0.3275 H   0  0  0  0  0  0  0  0  0  0  0  0
    1.0935   -1.4583   -0.8183 H   0  0  0  0  0  0  0  0  0  0  0  0
   -1.2910   -2.2103   -0.6454 H   0  0  0  0  0  0  0  0  0  0  0  0
   -5.4928    3.0075    0.1144 S   0  0  0  0  0  0  0  0  0  0  0  0
   -4.2202    3.3986    1.0002 O   0  0  0  0  0  0  0  0  0  0  0  0
   -5.5677    1.5674   -0.0463 O   0  0  0  0  0  0  0  0  0  0  0  0
   -6.5957    3.8042    0.6129 O   0  0  0  0  0  0  0  0  0  0  0  0
   -5.0822    3.5733   -1.3601 O   0  0  0  0  0  0  0  0  0  0  0  0
   -5.2973    4.5210   -1.3762 H   0  0  0  0  0  0  0  0  0  0  0  0
  1  2  1  0  0  0  0
  1  4  2  0  0  0  0
  2  3  1  0  0  0  0
  5  4  1  0  0  0  0
  5 10  1  0  0  0  0
  6  5  2  0  0  0  0
  7  8  2  0  0  0  0
  7  6  1  0  0  0  0
  8  1  1  0  0  0  0
  9 15  1  0  0  0  0
 11  6  1  0  0  0  0
 12  7  1  0  0  0  0
 13  8  1  0  0  0  0
 14 17  2  0  0  0  0
 14 15  1  0  0  0  0
 16 14  2  0  0  0  0
 18 14  1  0  0  0  0
 19 18  1  0  0  0  0
M  RAD  3   2   2   3   3   4   2
M  END
