Coordinates from ORCA-job PhN2+~HSO4-_B3LYPG-6-31G_dp-CH-Scan-d09-49-n800
 OpenBabel11261919183D

 19 18  0  0  0  0  0  0  0  0999 V2000
   -1.7072   -0.2590   -0.0533 C   0  0  0  0  0  0  0  0  0  0  0  0
   -3.0577   -0.5805    0.0680 N   0  0  0  0  0  0  0  0  0  0  0  0
   -4.1490   -0.7902    0.1946 N   0  0  0  0  0  0  0  0  0  0  0  0
   -1.4195    1.0622    0.3270 C   0  0  0  0  0  0  0  0  0  0  0  0
   -0.0228    1.2984    0.1775 C   0  0  0  0  0  0  0  0  0  0  0  0
    0.8837    0.3459   -0.2771 C   0  0  0  0  0  0  0  0  0  0  0  0
    0.4723   -0.9627   -0.6327 C   0  0  0  0  0  0  0  0  0  0  0  0
   -0.8586   -1.2982   -0.5254 C   0  0  0  0  0  0  0  0  0  0  0  0
   -3.9895    3.3927    1.1402 H   0  0  0  0  0  0  0  0  0  0  0  0
    0.3717    2.2828    0.4327 H   0  0  0  0  0  0  0  0  0  0  0  0
    1.9390    0.5989   -0.3677 H   0  0  0  0  0  0  0  0  0  0  0  0
    1.1963   -1.6906   -0.9842 H   0  0  0  0  0  0  0  0  0  0  0  0
   -1.2335   -2.2848   -0.7839 H   0  0  0  0  0  0  0  0  0  0  0  0
   -5.8440    3.1654    0.0943 S   0  0  0  0  0  0  0  0  0  0  0  0
   -4.8265    3.8901    1.1219 O   0  0  0  0  0  0  0  0  0  0  0  0
   -5.5760    1.7430    0.0731 O   0  0  0  0  0  0  0  0  0  0  0  0
   -7.1445    3.7380    0.3677 O   0  0  0  0  0  0  0  0  0  0  0  0
   -5.3251    3.7242   -1.3427 O   0  0  0  0  0  0  0  0  0  0  0  0
   -5.7244    4.6000   -1.4812 H   0  0  0  0  0  0  0  0  0  0  0  0
  1  2  1  0  0  0  0
  1  4  2  0  0  0  0
  2  3  1  0  0  0  0
  5  4  1  0  0  0  0
  5 10  1  0  0  0  0
  6  5  2  0  0  0  0
  7  8  2  0  0  0  0
  7  6  1  0  0  0  0
  8  1  1  0  0  0  0
 11  6  1  0  0  0  0
 12  7  1  0  0  0  0
 13  8  1  0  0  0  0
 14 17  2  0  0  0  0
 14 15  1  0  0  0  0
 15  9  1  0  0  0  0
 16 14  2  0  0  0  0
 18 14  1  0  0  0  0
 19 18  1  0  0  0  0
M  RAD  3   2   2   3   3   4   2
M  END
