Coordinates from ORCA-job PhN2+~HSO4-_B3LYPG-6-31G_dp-CH-Scan-d09-49-n800
 OpenBabel11261919183D

 19 18  0  0  0  0  0  0  0  0999 V2000
   -1.7043   -0.2598   -0.0529 C   0  0  0  0  0  0  0  0  0  0  0  0
   -3.0552   -0.5798    0.0690 N   0  0  0  0  0  0  0  0  0  0  0  0
   -4.1466   -0.7881    0.1966 N   0  0  0  0  0  0  0  0  0  0  0  0
   -1.4153    1.0608    0.3288 C   0  0  0  0  0  0  0  0  0  0  0  0
   -0.0184    1.2957    0.1787 C   0  0  0  0  0  0  0  0  0  0  0  0
    0.8869    0.3427   -0.2776 C   0  0  0  0  0  0  0  0  0  0  0  0
    0.4740   -0.9650   -0.6344 C   0  0  0  0  0  0  0  0  0  0  0  0
   -0.8572   -1.2993   -0.5267 C   0  0  0  0  0  0  0  0  0  0  0  0
   -3.9967    3.4009    1.1440 H   0  0  0  0  0  0  0  0  0  0  0  0
    0.3773    2.2794    0.4347 H   0  0  0  0  0  0  0  0  0  0  0  0
    1.9424    0.5948   -0.3685 H   0  0  0  0  0  0  0  0  0  0  0  0
    1.1970   -1.6933   -0.9872 H   0  0  0  0  0  0  0  0  0  0  0  0
   -1.2332   -2.2853   -0.7861 H   0  0  0  0  0  0  0  0  0  0  0  0
   -5.8480    3.1671    0.0939 S   0  0  0  0  0  0  0  0  0  0  0  0
   -4.8349    3.8961    1.1230 O   0  0  0  0  0  0  0  0  0  0  0  0
   -5.5751    1.7456    0.0746 O   0  0  0  0  0  0  0  0  0  0  0  0
   -7.1509    3.7358    0.3640 O   0  0  0  0  0  0  0  0  0  0  0  0
   -5.3278    3.7264   -1.3425 O   0  0  0  0  0  0  0  0  0  0  0  0
   -5.7296    4.6008   -1.4827 H   0  0  0  0  0  0  0  0  0  0  0  0
  1  2  1  0  0  0  0
  1  4  2  0  0  0  0
  2  3  1  0  0  0  0
  5  4  1  0  0  0  0
  5 10  1  0  0  0  0
  6  5  2  0  0  0  0
  7  8  2  0  0  0  0
  7  6  1  0  0  0  0
  8  1  1  0  0  0  0
 11  6  1  0  0  0  0
 12  7  1  0  0  0  0
 13  8  1  0  0  0  0
 14 17  2  0  0  0  0
 14 15  1  0  0  0  0
 15  9  1  0  0  0  0
 16 14  2  0  0  0  0
 18 14  1  0  0  0  0
 19 18  1  0  0  0  0
M  RAD  3   2   2   3   3   4   2
M  END
