Coordinates from ORCA-job PhN2+~HSO4-_B3LYPG-6-31G_dp-CH-Scan-d09-49-n800
 OpenBabel11261919183D

 19 18  0  0  0  0  0  0  0  0999 V2000
   -1.7060   -0.2438    0.8521 C   0  0  0  0  0  0  0  0  0  0  0  0
   -2.8466   -0.8452    1.3918 N   0  0  0  0  0  0  0  0  0  0  0  0
   -3.7106   -1.3476    1.8933 N   0  0  0  0  0  0  0  0  0  0  0  0
   -0.5888   -0.3969    1.6849 C   0  0  0  0  0  0  0  0  0  0  0  0
    0.5260    0.2667    1.0864 C   0  0  0  0  0  0  0  0  0  0  0  0
    0.4686    0.9505   -0.1226 C   0  0  0  0  0  0  0  0  0  0  0  0
   -0.7268    1.0162   -0.8859 C   0  0  0  0  0  0  0  0  0  0  0  0
   -1.8639    0.4017   -0.4058 C   0  0  0  0  0  0  0  0  0  0  0  0
   -3.1770    3.0376   -0.4691 H   0  0  0  0  0  0  0  0  0  0  0  0
    1.4866    0.2435    1.6032 H   0  0  0  0  0  0  0  0  0  0  0  0
    1.3585    1.4418   -0.5130 H   0  0  0  0  0  0  0  0  0  0  0  0
   -0.7349    1.5191   -1.8482 H   0  0  0  0  0  0  0  0  0  0  0  0
   -2.8020    0.3826   -0.9528 H   0  0  0  0  0  0  0  0  0  0  0  0
   -5.2666    2.5581   -0.5241 S   0  0  0  0  0  0  0  0  0  0  0  0
   -3.9937    3.5585   -0.5754 O   0  0  0  0  0  0  0  0  0  0  0  0
   -4.9356    1.4106    0.2968 O   0  0  0  0  0  0  0  0  0  0  0  0
   -6.4220    3.4002   -0.3148 O   0  0  0  0  0  0  0  0  0  0  0  0
   -5.2985    1.9911   -2.0488 O   0  0  0  0  0  0  0  0  0  0  0  0
   -5.7822    2.6308   -2.5995 H   0  0  0  0  0  0  0  0  0  0  0  0
  1  2  1  0  0  0  0
  1  4  2  0  0  0  0
  2  3  1  0  0  0  0
  5 10  1  0  0  0  0
  5  4  1  0  0  0  0
  6  5  2  0  0  0  0
  7  8  2  0  0  0  0
  7  6  1  0  0  0  0
  8  1  1  0  0  0  0
 11  6  1  0  0  0  0
 12  7  1  0  0  0  0
 13  8  1  0  0  0  0
 14 17  2  0  0  0  0
 14 16  2  0  0  0  0
 15 14  1  0  0  0  0
 15  9  1  0  0  0  0
 18 14  1  0  0  0  0
 19 18  1  0  0  0  0
M  RAD  3   2   2   3   3   4   2
M  END
