Coordinates from ORCA-job PhN2+~HSO4-_B3LYPG-6-31G_dp-CH-Scan-d09-49-n800
 OpenBabel11261919183D

 19 18  0  0  0  0  0  0  0  0999 V2000
   -2.0134   -0.1705   -0.0456 C   0  0  0  0  0  0  0  0  0  0  0  0
   -3.3182   -0.6321    0.0600 N   0  0  0  0  0  0  0  0  0  0  0  0
   -4.3764   -0.9746    0.1549 N   0  0  0  0  0  0  0  0  0  0  0  0
   -1.8410    1.2001    0.2248 C   0  0  0  0  0  0  0  0  0  0  0  0
   -0.4767    1.5626    0.0980 C   0  0  0  0  0  0  0  0  0  0  0  0
    0.5309    0.6657   -0.2477 C   0  0  0  0  0  0  0  0  0  0  0  0
    0.2531   -0.6964   -0.5020 C   0  0  0  0  0  0  0  0  0  0  0  0
   -1.0453   -1.1467   -0.4033 C   0  0  0  0  0  0  0  0  0  0  0  0
   -3.3217    2.5445    0.7033 H   0  0  0  0  0  0  0  0  0  0  0  0
   -0.1934    2.5976    0.2814 H   0  0  0  0  0  0  0  0  0  0  0  0
    1.5595    1.0113   -0.3273 H   0  0  0  0  0  0  0  0  0  0  0  0
    1.0507   -1.3806   -0.7717 H   0  0  0  0  0  0  0  0  0  0  0  0
   -1.3159   -2.1819   -0.5896 H   0  0  0  0  0  0  0  0  0  0  0  0
   -5.3578    2.9496    0.1029 S   0  0  0  0  0  0  0  0  0  0  0  0
   -4.0361    3.2250    0.9356 O   0  0  0  0  0  0  0  0  0  0  0  0
   -5.5129    1.5251   -0.1420 O   0  0  0  0  0  0  0  0  0  0  0  0
   -6.4099    3.7566    0.6912 O   0  0  0  0  0  0  0  0  0  0  0  0
   -5.0016    3.5840   -1.3618 O   0  0  0  0  0  0  0  0  0  0  0  0
   -5.1895    4.5360   -1.3124 H   0  0  0  0  0  0  0  0  0  0  0  0
  1  2  1  0  0  0  0
  1  4  2  0  0  0  0
  2  3  1  0  0  0  0
  5  4  1  0  0  0  0
  5 10  1  0  0  0  0
  6  5  2  0  0  0  0
  7  8  2  0  0  0  0
  7  6  1  0  0  0  0
  8  1  1  0  0  0  0
  9 15  1  0  0  0  0
 11  6  1  0  0  0  0
 12  7  1  0  0  0  0
 13  8  1  0  0  0  0
 14 17  2  0  0  0  0
 14 15  1  0  0  0  0
 16 14  2  0  0  0  0
 18 19  1  0  0  0  0
 18 14  1  0  0  0  0
M  RAD  3   2   2   3   3   4   2
M  END
