Coordinates from ORCA-job PhN2+~HSO4-_B3LYPG-6-31G_dp-CH-Scan-d09-49-n800
 OpenBabel11261919183D

 19 18  0  0  0  0  0  0  0  0999 V2000
   -1.7170   -0.2570   -0.0529 C   0  0  0  0  0  0  0  0  0  0  0  0
   -3.0660   -0.5838    0.0688 N   0  0  0  0  0  0  0  0  0  0  0  0
   -4.1573   -0.7982    0.1867 N   0  0  0  0  0  0  0  0  0  0  0  0
   -1.4344    1.0671    0.3220 C   0  0  0  0  0  0  0  0  0  0  0  0
   -0.0386    1.3081    0.1728 C   0  0  0  0  0  0  0  0  0  0  0  0
    0.8720    0.3572   -0.2773 C   0  0  0  0  0  0  0  0  0  0  0  0
    0.4659   -0.9543   -0.6277 C   0  0  0  0  0  0  0  0  0  0  0  0
   -0.8638   -1.2946   -0.5199 C   0  0  0  0  0  0  0  0  0  0  0  0
   -3.9668    3.3642    1.1300 H   0  0  0  0  0  0  0  0  0  0  0  0
    0.3519    2.2949    0.4244 H   0  0  0  0  0  0  0  0  0  0  0  0
    1.9263    0.6139   -0.3680 H   0  0  0  0  0  0  0  0  0  0  0  0
    1.1929   -1.6809   -0.9756 H   0  0  0  0  0  0  0  0  0  0  0  0
   -1.2345   -2.2837   -0.7746 H   0  0  0  0  0  0  0  0  0  0  0  0
   -5.8301    3.1591    0.0949 S   0  0  0  0  0  0  0  0  0  0  0  0
   -4.8001    3.8686    1.1201 O   0  0  0  0  0  0  0  0  0  0  0  0
   -5.5778    1.7340    0.0667 O   0  0  0  0  0  0  0  0  0  0  0  0
   -7.1233    3.7443    0.3764 O   0  0  0  0  0  0  0  0  0  0  0  0
   -5.3122    3.7179   -1.3426 O   0  0  0  0  0  0  0  0  0  0  0  0
   -5.7028    4.5985   -1.4756 H   0  0  0  0  0  0  0  0  0  0  0  0
  1  2  1  0  0  0  0
  1  4  2  0  0  0  0
  2  3  1  0  0  0  0
  5  4  1  0  0  0  0
  5 10  1  0  0  0  0
  6  5  2  0  0  0  0
  7  8  2  0  0  0  0
  7  6  1  0  0  0  0
  8  1  1  0  0  0  0
 11  6  1  0  0  0  0
 12  7  1  0  0  0  0
 13  8  1  0  0  0  0
 14 17  2  0  0  0  0
 14 15  1  0  0  0  0
 15  9  1  0  0  0  0
 16 14  2  0  0  0  0
 18 14  1  0  0  0  0
 19 18  1  0  0  0  0
M  RAD  3   2   2   3   3   4   2
M  END
