Coordinates from ORCA-job PhN2+~HSO4-_B3LYPG-6-31G_dp-CH-Scan-d09-49-n800
 OpenBabel11261919183D

 19 18  0  0  0  0  0  0  0  0999 V2000
   -1.6803   -0.2662   -0.0444 C   0  0  0  0  0  0  0  0  0  0  0  0
   -3.0334   -0.5748    0.0872 N   0  0  0  0  0  0  0  0  0  0  0  0
   -4.1268   -0.7720    0.2172 N   0  0  0  0  0  0  0  0  0  0  0  0
   -1.3785    1.0477    0.3491 C   0  0  0  0  0  0  0  0  0  0  0  0
    0.0194    1.2726    0.1894 C   0  0  0  0  0  0  0  0  0  0  0  0
    0.9128    0.3175   -0.2853 C   0  0  0  0  0  0  0  0  0  0  0  0
    0.4862   -0.9831   -0.6529 C   0  0  0  0  0  0  0  0  0  0  0  0
   -0.8467   -1.3078   -0.5370 C   0  0  0  0  0  0  0  0  0  0  0  0
   -4.0643    3.4724    1.1840 H   0  0  0  0  0  0  0  0  0  0  0  0
    0.4256    2.2501    0.4528 H   0  0  0  0  0  0  0  0  0  0  0  0
    1.9695    0.5619   -0.3829 H   0  0  0  0  0  0  0  0  0  0  0  0
    1.2003   -1.7132   -1.0197 H   0  0  0  0  0  0  0  0  0  0  0  0
   -1.2331   -2.2879   -0.8035 H   0  0  0  0  0  0  0  0  0  0  0  0
   -5.8798    3.1802    0.0872 S   0  0  0  0  0  0  0  0  0  0  0  0
   -4.9136    3.9459    1.1360 O   0  0  0  0  0  0  0  0  0  0  0  0
   -5.5641    1.7676    0.0861 O   0  0  0  0  0  0  0  0  0  0  0  0
   -7.2047    3.7126    0.3212 O   0  0  0  0  0  0  0  0  0  0  0  0
   -5.3401    3.7454   -1.3394 O   0  0  0  0  0  0  0  0  0  0  0  0
   -5.7639    4.6065   -1.4963 H   0  0  0  0  0  0  0  0  0  0  0  0
  1  2  1  0  0  0  0
  1  4  2  0  0  0  0
  2  3  1  0  0  0  0
  5  4  1  0  0  0  0
  5 10  1  0  0  0  0
  6  5  2  0  0  0  0
  7  8  2  0  0  0  0
  7  6  1  0  0  0  0
  8  1  1  0  0  0  0
 11  6  1  0  0  0  0
 12  7  1  0  0  0  0
 13  8  1  0  0  0  0
 14 17  2  0  0  0  0
 14 15  1  0  0  0  0
 15  9  1  0  0  0  0
 16 14  2  0  0  0  0
 18 14  1  0  0  0  0
 19 18  1  0  0  0  0
M  RAD  3   2   2   3   3   4   2
M  END
