Coordinates from ORCA-job PhN2+~HSO4-_B3LYPG-6-31G_dp-CH-Scan-d09-49-n800
 OpenBabel11261919183D

 19 18  0  0  0  0  0  0  0  0999 V2000
   -1.8820   -0.2073   -0.0573 C   0  0  0  0  0  0  0  0  0  0  0  0
   -3.2086   -0.6093    0.0486 N   0  0  0  0  0  0  0  0  0  0  0  0
   -4.2834   -0.8989    0.1458 N   0  0  0  0  0  0  0  0  0  0  0  0
   -1.6629    1.1449    0.2613 C   0  0  0  0  0  0  0  0  0  0  0  0
   -0.2823    1.4540    0.1305 C   0  0  0  0  0  0  0  0  0  0  0  0
    0.6846    0.5312   -0.2581 C   0  0  0  0  0  0  0  0  0  0  0  0
    0.3513   -0.8114   -0.5573 C   0  0  0  0  0  0  0  0  0  0  0  0
   -0.9622   -1.2138   -0.4603 C   0  0  0  0  0  0  0  0  0  0  0  0
   -3.5982    2.9172    0.9064 H   0  0  0  0  0  0  0  0  0  0  0  0
    0.0492    2.4693    0.3460 H   0  0  0  0  0  0  0  0  0  0  0  0
    1.7260    0.8376   -0.3384 H   0  0  0  0  0  0  0  0  0  0  0  0
    1.1199   -1.5153   -0.8590 H   0  0  0  0  0  0  0  0  0  0  0  0
   -1.2761   -2.2305   -0.6790 H   0  0  0  0  0  0  0  0  0  0  0  0
   -5.5825    3.0460    0.1093 S   0  0  0  0  0  0  0  0  0  0  0  0
   -4.3623    3.5206    1.0388 O   0  0  0  0  0  0  0  0  0  0  0  0
   -5.5780    1.6018   -0.0163 O   0  0  0  0  0  0  0  0  0  0  0  0
   -6.7365    3.8021    0.5501 O   0  0  0  0  0  0  0  0  0  0  0  0
   -5.1369    3.6005   -1.3571 O   0  0  0  0  0  0  0  0  0  0  0  0
   -5.3948    4.5366   -1.4052 H   0  0  0  0  0  0  0  0  0  0  0  0
  1  2  1  0  0  0  0
  1  4  2  0  0  0  0
  2  3  1  0  0  0  0
  5  4  1  0  0  0  0
  5 10  1  0  0  0  0
  6  5  2  0  0  0  0
  7  8  2  0  0  0  0
  7  6  1  0  0  0  0
  8  1  1  0  0  0  0
  9 15  1  0  0  0  0
 11  6  1  0  0  0  0
 12  7  1  0  0  0  0
 13  8  1  0  0  0  0
 14 17  2  0  0  0  0
 14 15  1  0  0  0  0
 16 14  2  0  0  0  0
 18 14  1  0  0  0  0
 19 18  1  0  0  0  0
M  RAD  3   2   2   3   3   4   2
M  END
