Coordinates from ORCA-job PhN2+~HSO4-_B3LYPG-6-31G_dp-CH-Scan-d09-49-n800
 OpenBabel11261919183D

 19 18  0  0  0  0  0  0  0  0999 V2000
   -2.0603   -0.0408   -0.3176 C   0  0  0  0  0  0  0  0  0  0  0  0
   -3.3819   -0.4162   -0.5073 N   0  0  0  0  0  0  0  0  0  0  0  0
   -4.4531   -0.6896   -0.6539 N   0  0  0  0  0  0  0  0  0  0  0  0
   -1.8354    1.3215   -0.0452 C   0  0  0  0  0  0  0  0  0  0  0  0
   -0.4604    1.5929    0.1291 C   0  0  0  0  0  0  0  0  0  0  0  0
    0.5296    0.6171    0.0378 C   0  0  0  0  0  0  0  0  0  0  0  0
    0.2120   -0.7288   -0.2426 C   0  0  0  0  0  0  0  0  0  0  0  0
   -1.1068   -1.0855   -0.4285 C   0  0  0  0  0  0  0  0  0  0  0  0
   -2.9680    2.5122    0.1138 H   0  0  0  0  0  0  0  0  0  0  0  0
   -0.1581    2.6145    0.3492 H   0  0  0  0  0  0  0  0  0  0  0  0
    1.5721    0.8893    0.1851 H   0  0  0  0  0  0  0  0  0  0  0  0
    0.9943   -1.4772   -0.3116 H   0  0  0  0  0  0  0  0  0  0  0  0
   -1.4048   -2.1064   -0.6471 H   0  0  0  0  0  0  0  0  0  0  0  0
   -5.1350    2.9685    0.3570 S   0  0  0  0  0  0  0  0  0  0  0  0
   -3.6337    3.3754    0.2532 O   0  0  0  0  0  0  0  0  0  0  0  0
   -5.2558    1.5431    0.6526 O   0  0  0  0  0  0  0  0  0  0  0  0
   -5.8591    3.9623    1.1340 O   0  0  0  0  0  0  0  0  0  0  0  0
   -5.6624    3.1013   -1.1965 O   0  0  0  0  0  0  0  0  0  0  0  0
   -5.9489    4.0216   -1.3127 H   0  0  0  0  0  0  0  0  0  0  0  0
  1  4  1  0  0  0  0
  2  1  1  0  0  0  0
  3  2  1  0  0  0  0
  4  5  2  0  0  0  0
  5 10  1  0  0  0  0
  6  5  1  0  0  0  0
  6 11  1  0  0  0  0
  7  6  2  0  0  0  0
  8  1  2  0  0  0  0
  8  7  1  0  0  0  0
  9 15  1  0  0  0  0
 12  7  1  0  0  0  0
 13  8  1  0  0  0  0
 14 16  2  0  0  0  0
 14 17  2  0  0  0  0
 15 14  1  0  0  0  0
 18 14  1  0  0  0  0
 19 18  1  0  0  0  0
M  RAD  3   2   2   3   3   4   2
M  END
