Coordinates from ORCA-job PhN2+~HSO4-_B3LYPG-6-31G_dp-CH-Scan-d09-49-n800
 OpenBabel11261919183D

 19 18  0  0  0  0  0  0  0  0999 V2000
   -2.0665    0.0059   -0.3835 C   0  0  0  0  0  0  0  0  0  0  0  0
   -3.3849   -0.3260   -0.6501 N   0  0  0  0  0  0  0  0  0  0  0  0
   -4.4606   -0.5433   -0.8433 N   0  0  0  0  0  0  0  0  0  0  0  0
   -1.7956    1.3620   -0.1317 C   0  0  0  0  0  0  0  0  0  0  0  0
   -0.4390    1.6148    0.1295 C   0  0  0  0  0  0  0  0  0  0  0  0
    0.5227    0.6051    0.1318 C   0  0  0  0  0  0  0  0  0  0  0  0
    0.1792   -0.7351   -0.1334 C   0  0  0  0  0  0  0  0  0  0  0  0
   -1.1360   -1.0600   -0.4005 C   0  0  0  0  0  0  0  0  0  0  0  0
   -2.7986    2.3891   -0.1175 H   0  0  0  0  0  0  0  0  0  0  0  0
   -0.1329    2.6359    0.3409 H   0  0  0  0  0  0  0  0  0  0  0  0
    1.5605    0.8499    0.3426 H   0  0  0  0  0  0  0  0  0  0  0  0
    0.9390   -1.5092   -0.1279 H   0  0  0  0  0  0  0  0  0  0  0  0
   -1.4482   -2.0781   -0.6098 H   0  0  0  0  0  0  0  0  0  0  0  0
   -5.0357    2.9506    0.3322 S   0  0  0  0  0  0  0  0  0  0  0  0
   -3.6231    3.3483   -0.1098 O   0  0  0  0  0  0  0  0  0  0  0  0
   -5.0882    1.5183    0.6608 O   0  0  0  0  0  0  0  0  0  0  0  0
   -5.6163    3.9182    1.2585 O   0  0  0  0  0  0  0  0  0  0  0  0
   -5.9196    3.0626   -1.0606 O   0  0  0  0  0  0  0  0  0  0  0  0
   -6.2719    3.9663   -1.0795 H   0  0  0  0  0  0  0  0  0  0  0  0
  1  4  1  0  0  0  0
  2  1  1  0  0  0  0
  3  2  1  0  0  0  0
  4  5  2  0  0  0  0
  5  6  1  0  0  0  0
  5 10  1  0  0  0  0
  6 11  1  0  0  0  0
  7 12  1  0  0  0  0
  7  6  2  0  0  0  0
  8  1  2  0  0  0  0
  8  7  1  0  0  0  0
  9 15  1  0  0  0  0
 13  8  1  0  0  0  0
 14 16  2  0  0  0  0
 14 17  2  0  0  0  0
 15 14  1  0  0  0  0
 18 14  1  0  0  0  0
 19 18  1  0  0  0  0
M  RAD  3   2   2   3   3   4   2
M  END
