Coordinates from ORCA-job PhN2+~HSO4-_B3LYPG-6-31G_dp-CH-Scan-d09-49-n800
 OpenBabel11261919183D

 19 18  0  0  0  0  0  0  0  0999 V2000
   -1.8291   -0.2237   -0.0510 C   0  0  0  0  0  0  0  0  0  0  0  0
   -3.1625   -0.6034    0.0647 N   0  0  0  0  0  0  0  0  0  0  0  0
   -4.2422   -0.8708    0.1744 N   0  0  0  0  0  0  0  0  0  0  0  0
   -1.5894    1.1190    0.2901 C   0  0  0  0  0  0  0  0  0  0  0  0
   -0.2040    1.4072    0.1472 C   0  0  0  0  0  0  0  0  0  0  0  0
    0.7434    0.4771   -0.2699 C   0  0  0  0  0  0  0  0  0  0  0  0
    0.3861   -0.8554   -0.5889 C   0  0  0  0  0  0  0  0  0  0  0  0
   -0.9321   -1.2391   -0.4832 C   0  0  0  0  0  0  0  0  0  0  0  0
   -3.7235    3.0690    1.0038 H   0  0  0  0  0  0  0  0  0  0  0  0
    0.1475    2.4132    0.3763 H   0  0  0  0  0  0  0  0  0  0  0  0
    1.7886    0.7685   -0.3580 H   0  0  0  0  0  0  0  0  0  0  0  0
    1.1403   -1.5653   -0.9122 H   0  0  0  0  0  0  0  0  0  0  0  0
   -1.2650   -2.2468   -0.7157 H   0  0  0  0  0  0  0  0  0  0  0  0
   -5.6642    3.0812    0.0997 S   0  0  0  0  0  0  0  0  0  0  0  0
   -4.5143    3.6399    1.0795 O   0  0  0  0  0  0  0  0  0  0  0  0
   -5.5760    1.6380    0.0115 O   0  0  0  0  0  0  0  0  0  0  0  0
   -6.8728    3.7875    0.4693 O   0  0  0  0  0  0  0  0  0  0  0  0
   -5.1724    3.6293   -1.3528 O   0  0  0  0  0  0  0  0  0  0  0  0
   -5.4741    4.5499   -1.4360 H   0  0  0  0  0  0  0  0  0  0  0  0
  1  2  1  0  0  0  0
  1  4  2  0  0  0  0
  2  3  1  0  0  0  0
  5  4  1  0  0  0  0
  5 10  1  0  0  0  0
  6  5  2  0  0  0  0
  7  8  2  0  0  0  0
  7  6  1  0  0  0  0
  8  1  1  0  0  0  0
  9 15  1  0  0  0  0
 11  6  1  0  0  0  0
 12  7  1  0  0  0  0
 13  8  1  0  0  0  0
 14 17  2  0  0  0  0
 14 15  1  0  0  0  0
 16 14  2  0  0  0  0
 18 14  1  0  0  0  0
 19 18  1  0  0  0  0
M  RAD  3   2   2   3   3   4   2
M  END
