Coordinates from ORCA-job PhN2+~HSO4-_B3LYPG-6-31G_dp-CH-Scan-d09-49-n800
 OpenBabel11261919183D

 19 18  0  0  0  0  0  0  0  0999 V2000
   -1.9974    0.3326   -0.0376 C   0  0  0  0  0  0  0  0  0  0  0  0
   -3.3887    0.1844   -0.0018 N   0  0  0  0  0  0  0  0  0  0  0  0
   -4.3974   -0.3103    0.0080 N   0  0  0  0  0  0  0  0  0  0  0  0
   -1.4036    1.5421    0.3390 C   0  0  0  0  0  0  0  0  0  0  0  0
   -0.0123    1.6046    0.3148 C   0  0  0  0  0  0  0  0  0  0  0  0
    0.7445    0.4996   -0.0828 C   0  0  0  0  0  0  0  0  0  0  0  0
    0.1224   -0.6971   -0.4600 C   0  0  0  0  0  0  0  0  0  0  0  0
   -1.2622   -0.7979   -0.4367 C   0  0  0  0  0  0  0  0  0  0  0  0
   -2.0231    2.3602    0.6053 H   0  0  0  0  0  0  0  0  0  0  0  0
    0.4797    2.5277    0.6025 H   0  0  0  0  0  0  0  0  0  0  0  0
    1.8280    0.5682   -0.1024 H   0  0  0  0  0  0  0  0  0  0  0  0
    0.7160   -1.5509   -0.7692 H   0  0  0  0  0  0  0  0  0  0  0  0
   -1.7718   -1.7124   -0.7192 H   0  0  0  0  0  0  0  0  0  0  0  0
   -5.4161    2.6916    0.0356 S   0  0  0  0  0  0  0  0  0  0  0  0
   -3.9311    2.5870   -0.0907 O   0  0  0  0  0  0  0  0  0  0  0  0
   -6.0162    1.3453    0.2502 O   0  0  0  0  0  0  0  0  0  0  0  0
   -5.9041    3.7547    0.9184 O   0  0  0  0  0  0  0  0  0  0  0  0
   -5.8935    3.1472   -1.4844 O   0  0  0  0  0  0  0  0  0  0  0  0
   -6.4886    3.8989   -1.3402 H   0  0  0  0  0  0  0  0  0  0  0  0
  1  2  1  0  0  0  0
  1  4  2  0  0  0  0
  2  3  1  0  0  0  0
  4  9  1  0  0  0  0
  5  4  1  0  0  0  0
  5 10  1  0  0  0  0
  6  5  2  0  0  0  0
  7  8  2  0  0  0  0
  7  6  1  0  0  0  0
  8  1  1  0  0  0  0
 11  6  1  0  0  0  0
 12  7  1  0  0  0  0
 13  8  1  0  0  0  0
 14 16  2  0  0  0  0
 14 17  1  0  0  0  0
 15 14  2  0  0  0  0
 18 19  1  0  0  0  0
 18 14  1  0  0  0  0
M  RAD  3   2   2   3   3  17   2
M  END
