Coordinates from ORCA-job PhN2+~HSO4-_B3LYPG-6-31G_dp-CH-Scan-d09-49-n800
 OpenBabel11261919183D

 19 18  0  0  0  0  0  0  0  0999 V2000
   -1.6483   -0.2737   -0.0298 C   0  0  0  0  0  0  0  0  0  0  0  0
   -3.0038   -0.5675    0.1157 N   0  0  0  0  0  0  0  0  0  0  0  0
   -4.0983   -0.7509    0.2568 N   0  0  0  0  0  0  0  0  0  0  0  0
   -1.3272    1.0298    0.3815 C   0  0  0  0  0  0  0  0  0  0  0  0
    0.0713    1.2410    0.2060 C   0  0  0  0  0  0  0  0  0  0  0  0
    0.9469    0.2842   -0.2972 C   0  0  0  0  0  0  0  0  0  0  0  0
    0.5004   -1.0054   -0.6802 C   0  0  0  0  0  0  0  0  0  0  0  0
   -0.8343   -1.3170   -0.5510 C   0  0  0  0  0  0  0  0  0  0  0  0
   -4.1575    3.5649    1.2324 H   0  0  0  0  0  0  0  0  0  0  0  0
    0.4926    2.2094    0.4799 H   0  0  0  0  0  0  0  0  0  0  0  0
    2.0049    0.5183   -0.4058 H   0  0  0  0  0  0  0  0  0  0  0  0
    1.2011   -1.7374   -1.0686 H   0  0  0  0  0  0  0  0  0  0  0  0
   -1.2358   -2.2882   -0.8278 H   0  0  0  0  0  0  0  0  0  0  0  0
   -5.9218    3.1960    0.0755 S   0  0  0  0  0  0  0  0  0  0  0  0
   -5.0218    4.0050    1.1521 O   0  0  0  0  0  0  0  0  0  0  0  0
   -5.5515    1.7971    0.0964 O   0  0  0  0  0  0  0  0  0  0  0  0
   -7.2729    3.6790    0.2608 O   0  0  0  0  0  0  0  0  0  0  0  0
   -5.3543    3.7739   -1.3349 O   0  0  0  0  0  0  0  0  0  0  0  0
   -5.8052    4.6170   -1.5129 H   0  0  0  0  0  0  0  0  0  0  0  0
  1  2  1  0  0  0  0
  1  4  2  0  0  0  0
  2  3  1  0  0  0  0
  5  4  1  0  0  0  0
  5 10  1  0  0  0  0
  6  5  2  0  0  0  0
  7  8  2  0  0  0  0
  7  6  1  0  0  0  0
  8  1  1  0  0  0  0
 11  6  1  0  0  0  0
 12  7  1  0  0  0  0
 13  8  1  0  0  0  0
 14 16  2  0  0  0  0
 14 17  2  0  0  0  0
 14 15  1  0  0  0  0
 15  9  1  0  0  0  0
 18 14  1  0  0  0  0
 19 18  1  0  0  0  0
M  RAD  3   2   2   3   3   4   2
M  END
