Coordinates from ORCA-job PhN2+~HSO4-_B3LYPG-6-31G_dp-CH-Scan-d09-49-n800
 OpenBabel11261919183D

 19 18  0  0  0  0  0  0  0  0999 V2000
   -2.0664    0.0074   -0.3841 C   0  0  0  0  0  0  0  0  0  0  0  0
   -3.3852   -0.3224   -0.6512 N   0  0  0  0  0  0  0  0  0  0  0  0
   -4.4618   -0.5360   -0.8436 N   0  0  0  0  0  0  0  0  0  0  0  0
   -1.7936    1.3629   -0.1313 C   0  0  0  0  0  0  0  0  0  0  0  0
   -0.4373    1.6150    0.1308 C   0  0  0  0  0  0  0  0  0  0  0  0
    0.5234    0.6041    0.1331 C   0  0  0  0  0  0  0  0  0  0  0  0
    0.1787   -0.7354   -0.1331 C   0  0  0  0  0  0  0  0  0  0  0  0
   -1.1368   -1.0590   -0.4012 C   0  0  0  0  0  0  0  0  0  0  0  0
   -2.7935    2.3861   -0.1189 H   0  0  0  0  0  0  0  0  0  0  0  0
   -0.1307    2.6357    0.3428 H   0  0  0  0  0  0  0  0  0  0  0  0
    1.5612    0.8479    0.3446 H   0  0  0  0  0  0  0  0  0  0  0  0
    0.9377   -1.5102   -0.1276 H   0  0  0  0  0  0  0  0  0  0  0  0
   -1.4498   -2.0767   -0.6112 H   0  0  0  0  0  0  0  0  0  0  0  0
   -5.0350    2.9506    0.3313 S   0  0  0  0  0  0  0  0  0  0  0  0
   -3.6247    3.3483   -0.1151 O   0  0  0  0  0  0  0  0  0  0  0  0
   -5.0858    1.5185    0.6630 O   0  0  0  0  0  0  0  0  0  0  0  0
   -5.6153    3.9185    1.2577 O   0  0  0  0  0  0  0  0  0  0  0  0
   -5.9235    3.0585   -1.0591 O   0  0  0  0  0  0  0  0  0  0  0  0
   -6.2772    3.9617   -1.0784 H   0  0  0  0  0  0  0  0  0  0  0  0
  1  4  1  0  0  0  0
  2  1  1  0  0  0  0
  3  2  1  0  0  0  0
  4  5  2  0  0  0  0
  5  6  1  0  0  0  0
  5 10  1  0  0  0  0
  6 11  1  0  0  0  0
  7 12  1  0  0  0  0
  7  6  2  0  0  0  0
  8  1  2  0  0  0  0
  8  7  1  0  0  0  0
  9 15  1  0  0  0  0
 13  8  1  0  0  0  0
 14 16  2  0  0  0  0
 14 17  2  0  0  0  0
 15 14  1  0  0  0  0
 18 14  1  0  0  0  0
 19 18  1  0  0  0  0
M  RAD  3   2   2   3   3   4   2
M  END
