Coordinates from ORCA-job PhN2+~HSO4-_B3LYPG-6-31G_dp-CH-Scan-d09-49-n800
 OpenBabel11261919183D

 19 18  0  0  0  0  0  0  0  0999 V2000
   -1.9746    0.3178   -0.1055 C   0  0  0  0  0  0  0  0  0  0  0  0
   -3.3658    0.1808   -0.1274 N   0  0  0  0  0  0  0  0  0  0  0  0
   -4.3918   -0.2752   -0.1611 N   0  0  0  0  0  0  0  0  0  0  0  0
   -1.3888    1.5388    0.2421 C   0  0  0  0  0  0  0  0  0  0  0  0
    0.0014    1.5973    0.2805 C   0  0  0  0  0  0  0  0  0  0  0  0
    0.7665    0.4689   -0.0263 C   0  0  0  0  0  0  0  0  0  0  0  0
    0.1545   -0.7421   -0.3761 C   0  0  0  0  0  0  0  0  0  0  0  0
   -1.2298   -0.8352   -0.4168 C   0  0  0  0  0  0  0  0  0  0  0  0
   -2.1000    2.4504    0.4532 H   0  0  0  0  0  0  0  0  0  0  0  0
    0.4868    2.5301    0.5466 H   0  0  0  0  0  0  0  0  0  0  0  0
    1.8504    0.5298    0.0044 H   0  0  0  0  0  0  0  0  0  0  0  0
    0.7568   -1.6123   -0.6144 H   0  0  0  0  0  0  0  0  0  0  0  0
   -1.7319   -1.7596   -0.6799 H   0  0  0  0  0  0  0  0  0  0  0  0
   -5.4075    2.7247    0.0520 S   0  0  0  0  0  0  0  0  0  0  0  0
   -3.9355    2.6512   -0.1793 O   0  0  0  0  0  0  0  0  0  0  0  0
   -5.9787    1.3580    0.2309 O   0  0  0  0  0  0  0  0  0  0  0  0
   -5.8590    3.7217    1.0265 O   0  0  0  0  0  0  0  0  0  0  0  0
   -5.9739    3.2597   -1.4098 O   0  0  0  0  0  0  0  0  0  0  0  0
   -6.6945    3.8706   -1.1908 H   0  0  0  0  0  0  0  0  0  0  0  0
  1  4  2  0  0  0  0
  2  1  1  0  0  0  0
  3  2  1  0  0  0  0
  4  5  1  0  0  0  0
  4  9  1  0  0  0  0
  5 10  1  0  0  0  0
  6 11  1  0  0  0  0
  6  5  2  0  0  0  0
  7  6  1  0  0  0  0
  8  7  2  0  0  0  0
  8  1  1  0  0  0  0
 12  7  1  0  0  0  0
 13  8  1  0  0  0  0
 14 16  2  0  0  0  0
 14 17  1  0  0  0  0
 15 14  2  0  0  0  0
 18 19  1  0  0  0  0
 18 14  1  0  0  0  0
M  RAD  3   2   2   3   3  17   2
M  END
