Coordinates from ORCA-job PhN2+~HSO4-_B3LYPG-6-31G_dp-CH-Scan-d09-49-n800
 OpenBabel11261919183D

 19 18  0  0  0  0  0  0  0  0999 V2000
   -2.0606   -0.0405   -0.3201 C   0  0  0  0  0  0  0  0  0  0  0  0
   -3.3816   -0.4157   -0.5132 N   0  0  0  0  0  0  0  0  0  0  0  0
   -4.4525   -0.6890   -0.6626 N   0  0  0  0  0  0  0  0  0  0  0  0
   -1.8353    1.3222   -0.0500 C   0  0  0  0  0  0  0  0  0  0  0  0
   -0.4611    1.5939    0.1279 C   0  0  0  0  0  0  0  0  0  0  0  0
    0.5288    0.6173    0.0417 C   0  0  0  0  0  0  0  0  0  0  0  0
    0.2114   -0.7289   -0.2366 C   0  0  0  0  0  0  0  0  0  0  0  0
   -1.1070   -1.0855   -0.4257 C   0  0  0  0  0  0  0  0  0  0  0  0
   -2.9619    2.5055    0.1018 H   0  0  0  0  0  0  0  0  0  0  0  0
   -0.1594    2.6159    0.3466 H   0  0  0  0  0  0  0  0  0  0  0  0
    1.5710    0.8895    0.1916 H   0  0  0  0  0  0  0  0  0  0  0  0
    0.9936   -1.4778   -0.3014 H   0  0  0  0  0  0  0  0  0  0  0  0
   -1.4046   -2.1068   -0.6429 H   0  0  0  0  0  0  0  0  0  0  0  0
   -5.1300    2.9679    0.3553 S   0  0  0  0  0  0  0  0  0  0  0  0
   -3.6302    3.3730    0.2366 O   0  0  0  0  0  0  0  0  0  0  0  0
   -5.2492    1.5413    0.6470 O   0  0  0  0  0  0  0  0  0  0  0  0
   -5.8464    3.9584    1.1438 O   0  0  0  0  0  0  0  0  0  0  0  0
   -5.6746    3.1074   -1.1918 O   0  0  0  0  0  0  0  0  0  0  0  0
   -5.9660    4.0272   -1.2992 H   0  0  0  0  0  0  0  0  0  0  0  0
  1  4  1  0  0  0  0
  2  1  1  0  0  0  0
  3  2  1  0  0  0  0
  4  5  2  0  0  0  0
  5 10  1  0  0  0  0
  6  5  1  0  0  0  0
  6 11  1  0  0  0  0
  7  6  2  0  0  0  0
  8  1  2  0  0  0  0
  8  7  1  0  0  0  0
  9 15  1  0  0  0  0
 12  7  1  0  0  0  0
 13  8  1  0  0  0  0
 14 16  2  0  0  0  0
 14 17  2  0  0  0  0
 15 14  1  0  0  0  0
 18 14  1  0  0  0  0
 19 18  1  0  0  0  0
M  RAD  3   2   2   3   3   4   2
M  END
