Coordinates from ORCA-job PhN2+~HSO4-_B3LYPG-6-31G_dp-CH-Scan-d09-49-n800
 OpenBabel11261919183D

 19 18  0  0  0  0  0  0  0  0999 V2000
   -1.9713    0.3090   -0.1236 C   0  0  0  0  0  0  0  0  0  0  0  0
   -3.3611    0.1721   -0.1616 N   0  0  0  0  0  0  0  0  0  0  0  0
   -4.3954   -0.2636   -0.2056 N   0  0  0  0  0  0  0  0  0  0  0  0
   -1.3918    1.5334    0.2233 C   0  0  0  0  0  0  0  0  0  0  0  0
   -0.0026    1.5948    0.2789 C   0  0  0  0  0  0  0  0  0  0  0  0
    0.7674    0.4648   -0.0095 C   0  0  0  0  0  0  0  0  0  0  0  0
    0.1618   -0.7500   -0.3585 C   0  0  0  0  0  0  0  0  0  0  0  0
   -1.2215   -0.8456   -0.4173 C   0  0  0  0  0  0  0  0  0  0  0  0
   -2.1253    2.4569    0.4185 H   0  0  0  0  0  0  0  0  0  0  0  0
    0.4786    2.5300    0.5441 H   0  0  0  0  0  0  0  0  0  0  0  0
    1.8508    0.5271    0.0350 H   0  0  0  0  0  0  0  0  0  0  0  0
    0.7687   -1.6208   -0.5822 H   0  0  0  0  0  0  0  0  0  0  0  0
   -1.7189   -1.7726   -0.6802 H   0  0  0  0  0  0  0  0  0  0  0  0
   -5.3942    2.7419    0.0564 S   0  0  0  0  0  0  0  0  0  0  0  0
   -3.9297    2.6742   -0.2166 O   0  0  0  0  0  0  0  0  0  0  0  0
   -5.9574    1.3727    0.2485 O   0  0  0  0  0  0  0  0  0  0  0  0
   -5.8250    3.7328    1.0461 O   0  0  0  0  0  0  0  0  0  0  0  0
   -5.9967    3.2784   -1.3903 O   0  0  0  0  0  0  0  0  0  0  0  0
   -6.7521    3.8400   -1.1566 H   0  0  0  0  0  0  0  0  0  0  0  0
  1  4  2  0  0  0  0
  2  1  1  0  0  0  0
  3  2  1  0  0  0  0
  4  5  1  0  0  0  0
  4  9  1  0  0  0  0
  5 10  1  0  0  0  0
  6 11  1  0  0  0  0
  6  5  2  0  0  0  0
  7  6  1  0  0  0  0
  8  7  2  0  0  0  0
  8  1  1  0  0  0  0
 12  7  1  0  0  0  0
 13  8  1  0  0  0  0
 14 16  2  0  0  0  0
 14 17  1  0  0  0  0
 15 14  2  0  0  0  0
 18 19  1  0  0  0  0
 18 14  1  0  0  0  0
M  RAD  3   2   2   3   3  17   2
M  END
