Coordinates from ORCA-job PhN2+~HSO4-_B3LYPG-6-31G_dp-CH-Scan-d09-49-n800
 OpenBabel11261919183D

 19 18  0  0  0  0  0  0  0  0999 V2000
   -1.7362   -0.2700    0.8419 C   0  0  0  0  0  0  0  0  0  0  0  0
   -2.8541   -0.9147    1.3796 N   0  0  0  0  0  0  0  0  0  0  0  0
   -3.7001   -1.4479    1.8797 N   0  0  0  0  0  0  0  0  0  0  0  0
   -0.6179   -0.3696    1.6810 C   0  0  0  0  0  0  0  0  0  0  0  0
    0.4684    0.3449    1.0871 C   0  0  0  0  0  0  0  0  0  0  0  0
    0.3851    1.0271   -0.1210 C   0  0  0  0  0  0  0  0  0  0  0  0
   -0.8069    1.0322   -0.8935 C   0  0  0  0  0  0  0  0  0  0  0  0
   -1.9158    0.3621   -0.4200 C   0  0  0  0  0  0  0  0  0  0  0  0
   -3.0548    2.8909   -0.5033 H   0  0  0  0  0  0  0  0  0  0  0  0
    1.4264    0.3660    1.6088 H   0  0  0  0  0  0  0  0  0  0  0  0
    1.2521    1.5620   -0.5054 H   0  0  0  0  0  0  0  0  0  0  0  0
   -0.8312    1.5270   -1.8599 H   0  0  0  0  0  0  0  0  0  0  0  0
   -2.8463    0.2927   -0.9760 H   0  0  0  0  0  0  0  0  0  0  0  0
   -5.1763    2.5708   -0.5037 S   0  0  0  0  0  0  0  0  0  0  0  0
   -3.8341    3.4702   -0.5976 O   0  0  0  0  0  0  0  0  0  0  0  0
   -4.9221    1.4195    0.3388 O   0  0  0  0  0  0  0  0  0  0  0  0
   -6.2619    3.5024   -0.2989 O   0  0  0  0  0  0  0  0  0  0  0  0
   -5.2758    1.9726   -2.0148 O   0  0  0  0  0  0  0  0  0  0  0  0
   -5.7140    2.6371   -2.5740 H   0  0  0  0  0  0  0  0  0  0  0  0
  1  2  1  0  0  0  0
  1  4  2  0  0  0  0
  2  3  1  0  0  0  0
  5 10  1  0  0  0  0
  5  4  1  0  0  0  0
  6  5  2  0  0  0  0
  7  8  2  0  0  0  0
  7  6  1  0  0  0  0
  8  1  1  0  0  0  0
 11  6  1  0  0  0  0
 12  7  1  0  0  0  0
 13  8  1  0  0  0  0
 14 17  2  0  0  0  0
 14 16  2  0  0  0  0
 15 14  1  0  0  0  0
 15  9  1  0  0  0  0
 18 14  1  0  0  0  0
 19 18  1  0  0  0  0
M  RAD  3   2   2   3   3   4   2
M  END
