Coordinates from ORCA-job PhN2+~HSO4-_B3LYPG-6-31G_dp-CH-Scan-d09-49-n800
 OpenBabel11261919183D

 19 18  0  0  0  0  0  0  0  0999 V2000
   -1.7854   -0.2378   -0.0518 C   0  0  0  0  0  0  0  0  0  0  0  0
   -3.1249   -0.5978    0.0665 N   0  0  0  0  0  0  0  0  0  0  0  0
   -4.2089   -0.8454    0.1831 N   0  0  0  0  0  0  0  0  0  0  0  0
   -1.5300    1.0981    0.3028 C   0  0  0  0  0  0  0  0  0  0  0  0
   -0.1405    1.3687    0.1569 C   0  0  0  0  0  0  0  0  0  0  0  0
    0.7932    0.4309   -0.2735 C   0  0  0  0  0  0  0  0  0  0  0  0
    0.4176   -0.8940   -0.6049 C   0  0  0  0  0  0  0  0  0  0  0  0
   -0.9049   -1.2616   -0.4980 C   0  0  0  0  0  0  0  0  0  0  0  0
   -3.8181    3.1852    1.0586 H   0  0  0  0  0  0  0  0  0  0  0  0
    0.2259    2.3677    0.3946 H   0  0  0  0  0  0  0  0  0  0  0  0
    1.8419    0.7096   -0.3630 H   0  0  0  0  0  0  0  0  0  0  0  0
    1.1617   -1.6100   -0.9381 H   0  0  0  0  0  0  0  0  0  0  0  0
   -1.2521   -2.2626   -0.7392 H   0  0  0  0  0  0  0  0  0  0  0  0
   -5.7296    3.1122    0.0965 S   0  0  0  0  0  0  0  0  0  0  0  0
   -4.6260    3.7313    1.0982 O   0  0  0  0  0  0  0  0  0  0  0  0
   -5.5764    1.6737    0.0315 O   0  0  0  0  0  0  0  0  0  0  0  0
   -6.9737    3.7730    0.4295 O   0  0  0  0  0  0  0  0  0  0  0  0
   -5.2241    3.6640   -1.3490 O   0  0  0  0  0  0  0  0  0  0  0  0
   -5.5612    4.5702   -1.4521 H   0  0  0  0  0  0  0  0  0  0  0  0
  1  2  1  0  0  0  0
  1  4  2  0  0  0  0
  2  3  1  0  0  0  0
  5  4  1  0  0  0  0
  5 10  1  0  0  0  0
  6  5  2  0  0  0  0
  7  8  2  0  0  0  0
  7  6  1  0  0  0  0
  8  1  1  0  0  0  0
  9 15  1  0  0  0  0
 11  6  1  0  0  0  0
 12  7  1  0  0  0  0
 13  8  1  0  0  0  0
 14 17  2  0  0  0  0
 14 15  1  0  0  0  0
 16 14  2  0  0  0  0
 18 14  1  0  0  0  0
 19 18  1  0  0  0  0
M  RAD  3   2   2   3   3   4   2
M  END
