Coordinates from ORCA-job PhN2+~HSO4-_B3LYPG-6-31G_dp-CH-Scan-d09-49-n800
 OpenBabel11261919183D

 19 18  0  0  0  0  0  0  0  0999 V2000
   -2.0651   -0.0202   -0.3598 C   0  0  0  0  0  0  0  0  0  0  0  0
   -3.3817   -0.3781   -0.6033 N   0  0  0  0  0  0  0  0  0  0  0  0
   -4.4517   -0.6301   -0.7872 N   0  0  0  0  0  0  0  0  0  0  0  0
   -1.8182    1.3419   -0.1124 C   0  0  0  0  0  0  0  0  0  0  0  0
   -0.4562    1.6091    0.1200 C   0  0  0  0  0  0  0  0  0  0  0  0
    0.5215    0.6159    0.1010 C   0  0  0  0  0  0  0  0  0  0  0  0
    0.1946   -0.7306   -0.1575 C   0  0  0  0  0  0  0  0  0  0  0  0
   -1.1202   -1.0749   -0.3967 C   0  0  0  0  0  0  0  0  0  0  0  0
   -2.8590    2.4149   -0.0603 H   0  0  0  0  0  0  0  0  0  0  0  0
   -0.1574    2.6339    0.3262 H   0  0  0  0  0  0  0  0  0  0  0  0
    1.5598    0.8772    0.2897 H   0  0  0  0  0  0  0  0  0  0  0  0
    0.9667   -1.4924   -0.1686 H   0  0  0  0  0  0  0  0  0  0  0  0
   -1.4217   -2.0975   -0.6006 H   0  0  0  0  0  0  0  0  0  0  0  0
   -5.0623    2.9557    0.3331 S   0  0  0  0  0  0  0  0  0  0  0  0
   -3.6101    3.3465   -0.0048 O   0  0  0  0  0  0  0  0  0  0  0  0
   -5.1526    1.5182    0.6112 O   0  0  0  0  0  0  0  0  0  0  0  0
   -5.6730    3.9127    1.2484 O   0  0  0  0  0  0  0  0  0  0  0  0
   -5.8450    3.1321   -1.1091 O   0  0  0  0  0  0  0  0  0  0  0  0
   -6.1839    4.0412   -1.1207 H   0  0  0  0  0  0  0  0  0  0  0  0
  1  4  1  0  0  0  0
  2  1  1  0  0  0  0
  3  2  1  0  0  0  0
  4  5  2  0  0  0  0
  5 10  1  0  0  0  0
  6  5  1  0  0  0  0
  6 11  1  0  0  0  0
  7  6  2  0  0  0  0
  8  1  2  0  0  0  0
  8  7  1  0  0  0  0
  9 15  1  0  0  0  0
 12  7  1  0  0  0  0
 13  8  1  0  0  0  0
 14 16  2  0  0  0  0
 14 17  2  0  0  0  0
 15 14  1  0  0  0  0
 18 14  1  0  0  0  0
 19 18  1  0  0  0  0
M  RAD  3   2   2   3   3   4   2
M  END
