Coordinates from ORCA-job PhN2+~HSO4-_B3LYPG-6-31G_dp-CH-Scan-d09-49-n800
 OpenBabel11261919183D

 19 18  0  0  0  0  0  0  0  0999 V2000
   -1.8342   -0.2219   -0.0519 C   0  0  0  0  0  0  0  0  0  0  0  0
   -3.1671   -0.6033    0.0625 N   0  0  0  0  0  0  0  0  0  0  0  0
   -4.2463   -0.8729    0.1722 N   0  0  0  0  0  0  0  0  0  0  0  0
   -1.5962    1.1215    0.2879 C   0  0  0  0  0  0  0  0  0  0  0  0
   -0.2112    1.4115    0.1463 C   0  0  0  0  0  0  0  0  0  0  0  0
    0.7380    0.4821   -0.2685 C   0  0  0  0  0  0  0  0  0  0  0  0
    0.3827   -0.8512   -0.5864 C   0  0  0  0  0  0  0  0  0  0  0  0
   -0.9352   -1.2364   -0.4818 C   0  0  0  0  0  0  0  0  0  0  0  0
   -3.7115    3.0561    0.9954 H   0  0  0  0  0  0  0  0  0  0  0  0
    0.1386    2.4182    0.3747 H   0  0  0  0  0  0  0  0  0  0  0  0
    1.7829    0.7748   -0.3557 H   0  0  0  0  0  0  0  0  0  0  0  0
    1.1382   -1.5605   -0.9080 H   0  0  0  0  0  0  0  0  0  0  0  0
   -1.2665   -2.2448   -0.7136 H   0  0  0  0  0  0  0  0  0  0  0  0
   -5.6564    3.0777    0.1009 S   0  0  0  0  0  0  0  0  0  0  0  0
   -4.4998    3.6300    1.0759 O   0  0  0  0  0  0  0  0  0  0  0  0
   -5.5761    1.6339    0.0105 O   0  0  0  0  0  0  0  0  0  0  0  0
   -6.8600    3.7894    0.4764 O   0  0  0  0  0  0  0  0  0  0  0  0
   -5.1687    3.6247   -1.3536 O   0  0  0  0  0  0  0  0  0  0  0  0
   -5.4667    4.5466   -1.4346 H   0  0  0  0  0  0  0  0  0  0  0  0
  1  2  1  0  0  0  0
  1  4  2  0  0  0  0
  2  3  1  0  0  0  0
  5  4  1  0  0  0  0
  5 10  1  0  0  0  0
  6  5  2  0  0  0  0
  7  8  2  0  0  0  0
  7  6  1  0  0  0  0
  8  1  1  0  0  0  0
  9 15  1  0  0  0  0
 11  6  1  0  0  0  0
 12  7  1  0  0  0  0
 13  8  1  0  0  0  0
 14 17  2  0  0  0  0
 14 15  1  0  0  0  0
 16 14  2  0  0  0  0
 18 14  1  0  0  0  0
 19 18  1  0  0  0  0
M  RAD  3   2   2   3   3   4   2
M  END
