Coordinates from ORCA-job PhN2+~HSO4-_B3LYPG-6-31G_dp-CH-Scan-d09-49-n800
 OpenBabel11261919183D

 19 18  0  0  0  0  0  0  0  0999 V2000
   -2.0176    0.3404   -0.0032 C   0  0  0  0  0  0  0  0  0  0  0  0
   -3.4076    0.1810    0.0589 N   0  0  0  0  0  0  0  0  0  0  0  0
   -4.4070   -0.3312    0.0933 N   0  0  0  0  0  0  0  0  0  0  0  0
   -1.4269    1.5462    0.3903 C   0  0  0  0  0  0  0  0  0  0  0  0
   -0.0361    1.6152    0.3360 C   0  0  0  0  0  0  0  0  0  0  0  0
    0.7207    0.5280   -0.1072 C   0  0  0  0  0  0  0  0  0  0  0  0
    0.0985   -0.6628   -0.5001 C   0  0  0  0  0  0  0  0  0  0  0  0
   -1.2850   -0.7737   -0.4467 C   0  0  0  0  0  0  0  0  0  0  0  0
   -1.9463    2.2444    0.6565 H   0  0  0  0  0  0  0  0  0  0  0  0
    0.4551    2.5348    0.6366 H   0  0  0  0  0  0  0  0  0  0  0  0
    1.8029    0.6062   -0.1501 H   0  0  0  0  0  0  0  0  0  0  0  0
    0.6899   -1.5044   -0.8448 H   0  0  0  0  0  0  0  0  0  0  0  0
   -1.7951   -1.6841   -0.7408 H   0  0  0  0  0  0  0  0  0  0  0  0
   -5.4009    2.6801    0.0270 S   0  0  0  0  0  0  0  0  0  0  0  0
   -3.9142    2.5426   -0.0577 O   0  0  0  0  0  0  0  0  0  0  0  0
   -6.0320    1.3539    0.2654 O   0  0  0  0  0  0  0  0  0  0  0  0
   -5.8843    3.7811    0.8644 O   0  0  0  0  0  0  0  0  0  0  0  0
   -5.8305    3.1000   -1.5176 O   0  0  0  0  0  0  0  0  0  0  0  0
   -6.3993    3.8780   -1.4115 H   0  0  0  0  0  0  0  0  0  0  0  0
  1  2  1  0  0  0  0
  1  4  2  0  0  0  0
  2  3  1  0  0  0  0
  4  9  1  0  0  0  0
  5  4  1  0  0  0  0
  5 10  1  0  0  0  0
  6  5  2  0  0  0  0
  7  8  2  0  0  0  0
  7  6  1  0  0  0  0
  8  1  1  0  0  0  0
 11  6  1  0  0  0  0
 12  7  1  0  0  0  0
 13  8  1  0  0  0  0
 14 16  2  0  0  0  0
 14 17  1  0  0  0  0
 15 14  2  0  0  0  0
 18 19  1  0  0  0  0
 18 14  1  0  0  0  0
M  RAD  3   2   2   3   3  17   2
M  END
