Coordinates from ORCA-job PhN2+~HSO4-_B3LYPG-6-31G_dp-CH-Scan-d09-49-n800
 OpenBabel11261919183D

 19 18  0  0  0  0  0  0  0  0999 V2000
   -1.7294   -0.2645    0.8445 C   0  0  0  0  0  0  0  0  0  0  0  0
   -2.8524   -0.8996    1.3830 N   0  0  0  0  0  0  0  0  0  0  0  0
   -3.7024   -1.4260    1.8835 N   0  0  0  0  0  0  0  0  0  0  0  0
   -0.6107   -0.3769    1.6814 C   0  0  0  0  0  0  0  0  0  0  0  0
    0.4822    0.3263    1.0863 C   0  0  0  0  0  0  0  0  0  0  0  0
    0.4042    1.0096   -0.1216 C   0  0  0  0  0  0  0  0  0  0  0  0
   -0.7894    1.0291   -0.8913 C   0  0  0  0  0  0  0  0  0  0  0  0
   -1.9047    0.3715   -0.4160 C   0  0  0  0  0  0  0  0  0  0  0  0
   -3.0822    2.9270   -0.4949 H   0  0  0  0  0  0  0  0  0  0  0  0
    1.4411    0.3368    1.6063 H   0  0  0  0  0  0  0  0  0  0  0  0
    1.2765    1.5347   -0.5076 H   0  0  0  0  0  0  0  0  0  0  0  0
   -0.8107    1.5264   -1.8563 H   0  0  0  0  0  0  0  0  0  0  0  0
   -2.8374    0.3139   -0.9695 H   0  0  0  0  0  0  0  0  0  0  0  0
   -5.1971    2.5681   -0.5088 S   0  0  0  0  0  0  0  0  0  0  0  0
   -3.8708    3.4924   -0.5922 O   0  0  0  0  0  0  0  0  0  0  0  0
   -4.9248    1.4180    0.3297 O   0  0  0  0  0  0  0  0  0  0  0  0
   -6.3003    3.4789   -0.3043 O   0  0  0  0  0  0  0  0  0  0  0  0
   -5.2791    1.9756   -2.0228 O   0  0  0  0  0  0  0  0  0  0  0  0
   -5.7282    2.6339   -2.5807 H   0  0  0  0  0  0  0  0  0  0  0  0
  1  2  1  0  0  0  0
  1  4  2  0  0  0  0
  2  3  1  0  0  0  0
  5 10  1  0  0  0  0
  5  4  1  0  0  0  0
  6  5  2  0  0  0  0
  7  8  2  0  0  0  0
  7  6  1  0  0  0  0
  8  1  1  0  0  0  0
 11  6  1  0  0  0  0
 12  7  1  0  0  0  0
 13  8  1  0  0  0  0
 14 17  2  0  0  0  0
 14 16  2  0  0  0  0
 15 14  1  0  0  0  0
 15  9  1  0  0  0  0
 18 14  1  0  0  0  0
 19 18  1  0  0  0  0
M  RAD  3   2   2   3   3   4   2
M  END
