Coordinates from ORCA-job PhN2+~HSO4-_B3LYPG-6-31G_dp-CH-Scan-d09-49-n800
 OpenBabel11261919183D

 19 18  0  0  0  0  0  0  0  0999 V2000
   -1.9668   -0.1823   -0.0581 C   0  0  0  0  0  0  0  0  0  0  0  0
   -3.2805   -0.6220    0.0401 N   0  0  0  0  0  0  0  0  0  0  0  0
   -4.3453   -0.9467    0.1291 N   0  0  0  0  0  0  0  0  0  0  0  0
   -1.7788    1.1813    0.2337 C   0  0  0  0  0  0  0  0  0  0  0  0
   -0.4076    1.5247    0.1123 C   0  0  0  0  0  0  0  0  0  0  0  0
    0.5868    0.6187   -0.2464 C   0  0  0  0  0  0  0  0  0  0  0  0
    0.2899   -0.7363   -0.5213 C   0  0  0  0  0  0  0  0  0  0  0  0
   -1.0145   -1.1695   -0.4300 C   0  0  0  0  0  0  0  0  0  0  0  0
   -3.4210    2.6845    0.7773 H   0  0  0  0  0  0  0  0  0  0  0  0
   -0.1071    2.5525    0.3108 H   0  0  0  0  0  0  0  0  0  0  0  0
    1.6206    0.9501   -0.3208 H   0  0  0  0  0  0  0  0  0  0  0  0
    1.0784   -1.4272   -0.8006 H   0  0  0  0  0  0  0  0  0  0  0  0
   -1.3000   -2.1979   -0.6317 H   0  0  0  0  0  0  0  0  0  0  0  0
   -5.4435    2.9879    0.1180 S   0  0  0  0  0  0  0  0  0  0  0  0
   -4.1458    3.3392    0.9762 O   0  0  0  0  0  0  0  0  0  0  0  0
   -5.5583    1.5509   -0.0542 O   0  0  0  0  0  0  0  0  0  0  0  0
   -6.5196    3.8044    0.6435 O   0  0  0  0  0  0  0  0  0  0  0  0
   -5.0540    3.5554   -1.3629 O   0  0  0  0  0  0  0  0  0  0  0  0
   -5.2484    4.5076   -1.3662 H   0  0  0  0  0  0  0  0  0  0  0  0
  1  2  1  0  0  0  0
  1  4  2  0  0  0  0
  2  3  1  0  0  0  0
  5  4  1  0  0  0  0
  5 10  1  0  0  0  0
  6  5  2  0  0  0  0
  7  8  2  0  0  0  0
  7  6  1  0  0  0  0
  8  1  1  0  0  0  0
  9 15  1  0  0  0  0
 11  6  1  0  0  0  0
 12  7  1  0  0  0  0
 13  8  1  0  0  0  0
 14 17  2  0  0  0  0
 14 15  1  0  0  0  0
 16 14  2  0  0  0  0
 18 14  1  0  0  0  0
 19 18  1  0  0  0  0
M  RAD  3   2   2   3   3   4   2
M  END
