Coordinates from ORCA-job PhN2+~HSO4-_B3LYPG-6-31G_dp-CH-Scan-d09-49-n800
 OpenBabel11261919183D

 19 18  0  0  0  0  0  0  0  0999 V2000
   -2.0564   -0.1600    0.0097 C   0  0  0  0  0  0  0  0  0  0  0  0
   -3.3497   -0.6381    0.1630 N   0  0  0  0  0  0  0  0  0  0  0  0
   -4.3988   -0.9936    0.2965 N   0  0  0  0  0  0  0  0  0  0  0  0
   -1.8893    1.2165    0.2521 C   0  0  0  0  0  0  0  0  0  0  0  0
   -0.5375    1.5980    0.0789 C   0  0  0  0  0  0  0  0  0  0  0  0
    0.4715    0.7088   -0.2835 C   0  0  0  0  0  0  0  0  0  0  0  0
    0.2042   -0.6601   -0.5067 C   0  0  0  0  0  0  0  0  0  0  0  0
   -1.0846   -1.1264   -0.3610 C   0  0  0  0  0  0  0  0  0  0  0  0
   -3.2441    2.4015    0.6847 H   0  0  0  0  0  0  0  0  0  0  0  0
   -0.2668    2.6402    0.2369 H   0  0  0  0  0  0  0  0  0  0  0  0
    1.4919    1.0669   -0.4007 H   0  0  0  0  0  0  0  0  0  0  0  0
    1.0022   -1.3383   -0.7897 H   0  0  0  0  0  0  0  0  0  0  0  0
   -1.3459   -2.1679   -0.5225 H   0  0  0  0  0  0  0  0  0  0  0  0
   -5.2642    2.8927    0.0275 S   0  0  0  0  0  0  0  0  0  0  0  0
   -3.9891    3.0864    0.9328 O   0  0  0  0  0  0  0  0  0  0  0  0
   -5.3741    1.5046   -0.3996 O   0  0  0  0  0  0  0  0  0  0  0  0
   -6.3712    3.5927    0.6555 O   0  0  0  0  0  0  0  0  0  0  0  0
   -4.8776    3.7134   -1.3367 O   0  0  0  0  0  0  0  0  0  0  0  0
   -5.1361    4.6381   -1.1886 H   0  0  0  0  0  0  0  0  0  0  0  0
  1  2  1  0  0  0  0
  1  4  2  0  0  0  0
  2  3  1  0  0  0  0
  5 10  1  0  0  0  0
  5  4  1  0  0  0  0
  6  5  2  0  0  0  0
  7  8  2  0  0  0  0
  7  6  1  0  0  0  0
  8  1  1  0  0  0  0
  9 15  1  0  0  0  0
 11  6  1  0  0  0  0
 12  7  1  0  0  0  0
 13  8  1  0  0  0  0
 14 17  2  0  0  0  0
 14 15  1  0  0  0  0
 16 14  2  0  0  0  0
 18 19  1  0  0  0  0
 18 14  1  0  0  0  0
M  RAD  3   2   2   3   3   4   2
M  END
