Coordinates from ORCA-job PhN2+~HSO4-_B3LYPG-6-31G_dp-CH-Scan-d09-49-n800
 OpenBabel11261919183D

 19 18  0  0  0  0  0  0  0  0999 V2000
   -1.5676   -0.2853    0.0308 C   0  0  0  0  0  0  0  0  0  0  0  0
   -2.9256   -0.5395    0.2286 N   0  0  0  0  0  0  0  0  0  0  0  0
   -4.0179   -0.6860    0.4220 N   0  0  0  0  0  0  0  0  0  0  0  0
   -1.1840    0.9773    0.5074 C   0  0  0  0  0  0  0  0  0  0  0  0
    0.2114    1.1556    0.2751 C   0  0  0  0  0  0  0  0  0  0  0  0
    1.0273    0.2068   -0.3326 C   0  0  0  0  0  0  0  0  0  0  0  0
    0.5182   -1.0409   -0.7733 C   0  0  0  0  0  0  0  0  0  0  0  0
   -0.8185   -1.3186   -0.5963 C   0  0  0  0  0  0  0  0  0  0  0  0
   -4.4013    3.7372    1.3371 H   0  0  0  0  0  0  0  0  0  0  0  0
    0.6789    2.0905    0.5881 H   0  0  0  0  0  0  0  0  0  0  0  0
    2.0862    0.4141   -0.4809 H   0  0  0  0  0  0  0  0  0  0  0  0
    1.1738   -1.7676   -1.2422 H   0  0  0  0  0  0  0  0  0  0  0  0
   -1.2662   -2.2572   -0.9121 H   0  0  0  0  0  0  0  0  0  0  0  0
   -6.0217    3.2300    0.0324 S   0  0  0  0  0  0  0  0  0  0  0  0
   -5.2771    4.1235    1.1625 O   0  0  0  0  0  0  0  0  0  0  0  0
   -5.5447    1.8664    0.1167 O   0  0  0  0  0  0  0  0  0  0  0  0
   -7.4164    3.6085    0.0963 O   0  0  0  0  0  0  0  0  0  0  0  0
   -5.3848    3.8303   -1.3376 O   0  0  0  0  0  0  0  0  0  0  0  0
   -5.8855    4.6302   -1.5730 H   0  0  0  0  0  0  0  0  0  0  0  0
  1  2  1  0  0  0  0
  1  4  2  0  0  0  0
  2  3  1  0  0  0  0
  5  4  1  0  0  0  0
  5 10  1  0  0  0  0
  6  5  2  0  0  0  0
  7  8  2  0  0  0  0
  7  6  1  0  0  0  0
  8  1  1  0  0  0  0
 11  6  1  0  0  0  0
 12  7  1  0  0  0  0
 13  8  1  0  0  0  0
 14 17  2  0  0  0  0
 14 16  2  0  0  0  0
 14 15  1  0  0  0  0
 15  9  1  0  0  0  0
 18 14  1  0  0  0  0
 19 18  1  0  0  0  0
M  RAD  3   2   2   3   3   4   2
M  END
