Coordinates from ORCA-job PhN2+~HSO4-_B3LYPG-6-31G_dp-CH-Scan-d09-49-n800
 OpenBabel11261919183D

 19 18  0  0  0  0  0  0  0  0999 V2000
   -1.8311   -0.2230   -0.0513 C   0  0  0  0  0  0  0  0  0  0  0  0
   -3.1643   -0.6034    0.0641 N   0  0  0  0  0  0  0  0  0  0  0  0
   -4.2438   -0.8718    0.1731 N   0  0  0  0  0  0  0  0  0  0  0  0
   -1.5921    1.1200    0.2891 C   0  0  0  0  0  0  0  0  0  0  0  0
   -0.2069    1.4090    0.1467 C   0  0  0  0  0  0  0  0  0  0  0  0
    0.7412    0.4791   -0.2695 C   0  0  0  0  0  0  0  0  0  0  0  0
    0.3847   -0.8537   -0.5879 C   0  0  0  0  0  0  0  0  0  0  0  0
   -0.9333   -1.2381   -0.4824 C   0  0  0  0  0  0  0  0  0  0  0  0
   -3.7188    3.0636    1.0005 H   0  0  0  0  0  0  0  0  0  0  0  0
    0.1439    2.4154    0.3754 H   0  0  0  0  0  0  0  0  0  0  0  0
    1.7863    0.7711   -0.3573 H   0  0  0  0  0  0  0  0  0  0  0  0
    1.1395   -1.5634   -0.9104 H   0  0  0  0  0  0  0  0  0  0  0  0
   -1.2656   -2.2461   -0.7145 H   0  0  0  0  0  0  0  0  0  0  0  0
   -5.6611    3.0799    0.1001 S   0  0  0  0  0  0  0  0  0  0  0  0
   -4.5086    3.6358    1.0782 O   0  0  0  0  0  0  0  0  0  0  0  0
   -5.5762    1.6364    0.0109 O   0  0  0  0  0  0  0  0  0  0  0  0
   -6.8678    3.7883    0.4721 O   0  0  0  0  0  0  0  0  0  0  0  0
   -5.1708    3.6276   -1.3530 O   0  0  0  0  0  0  0  0  0  0  0  0
   -5.4708    4.5488   -1.4352 H   0  0  0  0  0  0  0  0  0  0  0  0
  1  2  1  0  0  0  0
  1  4  2  0  0  0  0
  2  3  1  0  0  0  0
  5  4  1  0  0  0  0
  5 10  1  0  0  0  0
  6  5  2  0  0  0  0
  7  8  2  0  0  0  0
  7  6  1  0  0  0  0
  8  1  1  0  0  0  0
  9 15  1  0  0  0  0
 11  6  1  0  0  0  0
 12  7  1  0  0  0  0
 13  8  1  0  0  0  0
 14 17  2  0  0  0  0
 14 15  1  0  0  0  0
 16 14  2  0  0  0  0
 18 14  1  0  0  0  0
 19 18  1  0  0  0  0
M  RAD  3   2   2   3   3   4   2
M  END
