Coordinates from ORCA-job PhN2+~HSO4-_B3LYPG-6-31G_dp-CH-Scan-d09-49-n800
 OpenBabel11261919183D

 19 18  0  0  0  0  0  0  0  0999 V2000
   -1.8331   -0.2224   -0.0515 C   0  0  0  0  0  0  0  0  0  0  0  0
   -3.1661   -0.6035    0.0634 N   0  0  0  0  0  0  0  0  0  0  0  0
   -4.2455   -0.8728    0.1720 N   0  0  0  0  0  0  0  0  0  0  0  0
   -1.5949    1.1210    0.2883 C   0  0  0  0  0  0  0  0  0  0  0  0
   -0.2099    1.4107    0.1463 C   0  0  0  0  0  0  0  0  0  0  0  0
    0.7390    0.4812   -0.2690 C   0  0  0  0  0  0  0  0  0  0  0  0
    0.3833   -0.8520   -0.5869 C   0  0  0  0  0  0  0  0  0  0  0  0
   -0.9345   -1.2370   -0.4818 C   0  0  0  0  0  0  0  0  0  0  0  0
   -3.7140    3.0584    0.9973 H   0  0  0  0  0  0  0  0  0  0  0  0
    0.1402    2.4174    0.3746 H   0  0  0  0  0  0  0  0  0  0  0  0
    1.7839    0.7737   -0.3565 H   0  0  0  0  0  0  0  0  0  0  0  0
    1.1386   -1.5614   -0.9088 H   0  0  0  0  0  0  0  0  0  0  0  0
   -1.2661   -2.2454   -0.7135 H   0  0  0  0  0  0  0  0  0  0  0  0
   -5.6580    3.0785    0.1006 S   0  0  0  0  0  0  0  0  0  0  0  0
   -4.5029    3.6317    1.0769 O   0  0  0  0  0  0  0  0  0  0  0  0
   -5.5762    1.6348    0.0105 O   0  0  0  0  0  0  0  0  0  0  0  0
   -6.8627    3.7891    0.4748 O   0  0  0  0  0  0  0  0  0  0  0  0
   -5.1691    3.6259   -1.3533 O   0  0  0  0  0  0  0  0  0  0  0  0
   -5.4677    4.5476   -1.4346 H   0  0  0  0  0  0  0  0  0  0  0  0
  1  2  1  0  0  0  0
  1  4  2  0  0  0  0
  2  3  1  0  0  0  0
  5  4  1  0  0  0  0
  5 10  1  0  0  0  0
  6  5  2  0  0  0  0
  7  8  2  0  0  0  0
  7  6  1  0  0  0  0
  8  1  1  0  0  0  0
  9 15  1  0  0  0  0
 11  6  1  0  0  0  0
 12  7  1  0  0  0  0
 13  8  1  0  0  0  0
 14 17  2  0  0  0  0
 14 15  1  0  0  0  0
 16 14  2  0  0  0  0
 18 14  1  0  0  0  0
 19 18  1  0  0  0  0
M  RAD  3   2   2   3   3   4   2
M  END
