Coordinates from ORCA-job PhN2+~HSO4-_B3LYPG-6-31G_dp-CH-Scan-d09-49-n800
 OpenBabel11261919183D

 19 18  0  0  0  0  0  0  0  0999 V2000
   -2.0134    0.3410   -0.0043 C   0  0  0  0  0  0  0  0  0  0  0  0
   -3.4038    0.1841    0.0578 N   0  0  0  0  0  0  0  0  0  0  0  0
   -4.4031   -0.3282    0.0914 N   0  0  0  0  0  0  0  0  0  0  0  0
   -1.4185    1.5442    0.3905 C   0  0  0  0  0  0  0  0  0  0  0  0
   -0.0275    1.6103    0.3371 C   0  0  0  0  0  0  0  0  0  0  0  0
    0.7261    0.5211   -0.1071 C   0  0  0  0  0  0  0  0  0  0  0  0
    0.1004   -0.6675   -0.5015 C   0  0  0  0  0  0  0  0  0  0  0  0
   -1.2833   -0.7747   -0.4487 C   0  0  0  0  0  0  0  0  0  0  0  0
   -1.9659    2.2818    0.6699 H   0  0  0  0  0  0  0  0  0  0  0  0
    0.4665    2.5281    0.6386 H   0  0  0  0  0  0  0  0  0  0  0  0
    1.8085    0.5961   -0.1496 H   0  0  0  0  0  0  0  0  0  0  0  0
    0.6895   -1.5105   -0.8469 H   0  0  0  0  0  0  0  0  0  0  0  0
   -1.7957   -1.6835   -0.7438 H   0  0  0  0  0  0  0  0  0  0  0  0
   -5.4055    2.6805    0.0262 S   0  0  0  0  0  0  0  0  0  0  0  0
   -3.9184    2.5483   -0.0602 O   0  0  0  0  0  0  0  0  0  0  0  0
   -6.0315    1.3521    0.2658 O   0  0  0  0  0  0  0  0  0  0  0  0
   -5.8922    3.7801    0.8636 O   0  0  0  0  0  0  0  0  0  0  0  0
   -5.8383    3.0981   -1.5182 O   0  0  0  0  0  0  0  0  0  0  0  0
   -6.4096    3.8742   -1.4118 H   0  0  0  0  0  0  0  0  0  0  0  0
  1  2  1  0  0  0  0
  1  4  2  0  0  0  0
  2  3  1  0  0  0  0
  4  9  1  0  0  0  0
  5  4  1  0  0  0  0
  5 10  1  0  0  0  0
  6  5  2  0  0  0  0
  7  8  2  0  0  0  0
  7  6  1  0  0  0  0
  8  1  1  0  0  0  0
 11  6  1  0  0  0  0
 12  7  1  0  0  0  0
 13  8  1  0  0  0  0
 14 16  2  0  0  0  0
 14 17  1  0  0  0  0
 15 14  2  0  0  0  0
 18 19  1  0  0  0  0
 18 14  1  0  0  0  0
M  RAD  3   2   2   3   3  17   2
M  END
