Coordinates from ORCA-job PhN2+~HSO4-_B3LYPG-6-31G_dp-CH-Scan-d09-49-n800
 OpenBabel11261919183D

 19 18  0  0  0  0  0  0  0  0999 V2000
   -1.6627   -0.2708   -0.0374 C   0  0  0  0  0  0  0  0  0  0  0  0
   -3.0173   -0.5711    0.1016 N   0  0  0  0  0  0  0  0  0  0  0  0
   -4.1112   -0.7600    0.2390 N   0  0  0  0  0  0  0  0  0  0  0  0
   -1.3509    1.0377    0.3657 C   0  0  0  0  0  0  0  0  0  0  0  0
    0.0473    1.2554    0.1978 C   0  0  0  0  0  0  0  0  0  0  0  0
    0.9315    0.2992   -0.2918 C   0  0  0  0  0  0  0  0  0  0  0  0
    0.4945   -0.9957   -0.6676 C   0  0  0  0  0  0  0  0  0  0  0  0
   -0.8394   -1.3134   -0.5450 C   0  0  0  0  0  0  0  0  0  0  0  0
   -4.1167    3.5228    1.2136 H   0  0  0  0  0  0  0  0  0  0  0  0
    0.4615    2.2281    0.4667 H   0  0  0  0  0  0  0  0  0  0  0  0
    1.9890    0.5381   -0.3950 H   0  0  0  0  0  0  0  0  0  0  0  0
    1.2017   -1.7268   -1.0457 H   0  0  0  0  0  0  0  0  0  0  0  0
   -1.2337   -2.2889   -0.8170 H   0  0  0  0  0  0  0  0  0  0  0  0
   -5.9029    3.1895    0.0810 S   0  0  0  0  0  0  0  0  0  0  0  0
   -4.9731    3.9800    1.1454 O   0  0  0  0  0  0  0  0  0  0  0  0
   -5.5566    1.7843    0.0934 O   0  0  0  0  0  0  0  0  0  0  0  0
   -7.2429    3.6949    0.2872 O   0  0  0  0  0  0  0  0  0  0  0  0
   -5.3473    3.7605   -1.3368 O   0  0  0  0  0  0  0  0  0  0  0  0
   -5.7864    4.6116   -1.5063 H   0  0  0  0  0  0  0  0  0  0  0  0
  1  2  1  0  0  0  0
  1  4  2  0  0  0  0
  2  3  1  0  0  0  0
  5  4  1  0  0  0  0
  5 10  1  0  0  0  0
  6  5  2  0  0  0  0
  7  8  2  0  0  0  0
  7  6  1  0  0  0  0
  8  1  1  0  0  0  0
 11  6  1  0  0  0  0
 12  7  1  0  0  0  0
 13  8  1  0  0  0  0
 14 16  2  0  0  0  0
 14 17  2  0  0  0  0
 14 15  1  0  0  0  0
 15  9  1  0  0  0  0
 18 14  1  0  0  0  0
 19 18  1  0  0  0  0
M  RAD  3   2   2   3   3   4   2
M  END
