Coordinates from ORCA-job PhN2+~HSO4-_B3LYPG-6-31G_dp-CH-Scan-d09-49-n800
 OpenBabel11261919183D

 19 18  0  0  0  0  0  0  0  0999 V2000
   -2.0606   -0.0618   -0.2749 C   0  0  0  0  0  0  0  0  0  0  0  0
   -3.3831   -0.4559   -0.4167 N   0  0  0  0  0  0  0  0  0  0  0  0
   -4.4549   -0.7454   -0.5251 N   0  0  0  0  0  0  0  0  0  0  0  0
   -1.8484    1.3012    0.0057 C   0  0  0  0  0  0  0  0  0  0  0  0
   -0.4697    1.5886    0.1280 C   0  0  0  0  0  0  0  0  0  0  0  0
    0.5301    0.6292   -0.0149 C   0  0  0  0  0  0  0  0  0  0  0  0
    0.2217   -0.7184   -0.2990 C   0  0  0  0  0  0  0  0  0  0  0  0
   -1.0980   -1.0922   -0.4364 C   0  0  0  0  0  0  0  0  0  0  0  0
   -3.0203    2.5271    0.2327 H   0  0  0  0  0  0  0  0  0  0  0  0
   -0.1713    2.6115    0.3483 H   0  0  0  0  0  0  0  0  0  0  0  0
    1.5738    0.9155    0.0937 H   0  0  0  0  0  0  0  0  0  0  0  0
    1.0117   -1.4538   -0.4088 H   0  0  0  0  0  0  0  0  0  0  0  0
   -1.3900   -2.1147   -0.6559 H   0  0  0  0  0  0  0  0  0  0  0  0
   -5.1834    2.9702    0.3452 S   0  0  0  0  0  0  0  0  0  0  0  0
   -3.6712    3.3637    0.4211 O   0  0  0  0  0  0  0  0  0  0  0  0
   -5.3521    1.5435    0.6000 O   0  0  0  0  0  0  0  0  0  0  0  0
   -5.9678    3.9660    1.0561 O   0  0  0  0  0  0  0  0  0  0  0  0
   -5.5274    3.1338   -1.2540 O   0  0  0  0  0  0  0  0  0  0  0  0
   -5.7548    4.0671   -1.3962 H   0  0  0  0  0  0  0  0  0  0  0  0
  1  4  2  0  0  0  0
  2  1  1  0  0  0  0
  3  2  1  0  0  0  0
  4  5  1  0  0  0  0
  5 10  1  0  0  0  0
  6 11  1  0  0  0  0
  6  5  2  0  0  0  0
  7  6  1  0  0  0  0
  8  7  2  0  0  0  0
  8  1  1  0  0  0  0
  9 15  1  0  0  0  0
 12  7  1  0  0  0  0
 13  8  1  0  0  0  0
 14 15  1  0  0  0  0
 14 16  2  0  0  0  0
 14 17  2  0  0  0  0
 18 14  1  0  0  0  0
 19 18  1  0  0  0  0
M  RAD  3   2   2   3   3   4   2
M  END
