Coordinates from ORCA-job PhN2+~HSO4-_B3LYPG-6-31G_dp-CH-Scan-d09-49-n800
 OpenBabel11261919183D

 19 18  0  0  0  0  0  0  0  0999 V2000
   -1.8083   -0.2306   -0.0499 C   0  0  0  0  0  0  0  0  0  0  0  0
   -3.1446   -0.6009    0.0683 N   0  0  0  0  0  0  0  0  0  0  0  0
   -4.2262   -0.8594    0.1814 N   0  0  0  0  0  0  0  0  0  0  0  0
   -1.5607    1.1085    0.2987 C   0  0  0  0  0  0  0  0  0  0  0  0
   -0.1735    1.3885    0.1528 C   0  0  0  0  0  0  0  0  0  0  0  0
    0.7669    0.4552   -0.2728 C   0  0  0  0  0  0  0  0  0  0  0  0
    0.4004   -0.8734   -0.5986 C   0  0  0  0  0  0  0  0  0  0  0  0
   -0.9197   -1.2496   -0.4910 C   0  0  0  0  0  0  0  0  0  0  0  0
   -3.7708    3.1276    1.0348 H   0  0  0  0  0  0  0  0  0  0  0  0
    0.1853    2.3910    0.3867 H   0  0  0  0  0  0  0  0  0  0  0  0
    1.8136    0.7407   -0.3627 H   0  0  0  0  0  0  0  0  0  0  0  0
    1.1495   -1.5859   -0.9283 H   0  0  0  0  0  0  0  0  0  0  0  0
   -1.2598   -2.2539   -0.7282 H   0  0  0  0  0  0  0  0  0  0  0  0
   -5.6949    3.0955    0.0971 S   0  0  0  0  0  0  0  0  0  0  0  0
   -4.5706    3.6858    1.0906 O   0  0  0  0  0  0  0  0  0  0  0  0
   -5.5733    1.6541    0.0211 O   0  0  0  0  0  0  0  0  0  0  0  0
   -6.9226    3.7790    0.4452 O   0  0  0  0  0  0  0  0  0  0  0  0
   -5.1930    3.6449   -1.3510 O   0  0  0  0  0  0  0  0  0  0  0  0
   -5.5130    4.5582   -1.4454 H   0  0  0  0  0  0  0  0  0  0  0  0
  1  2  1  0  0  0  0
  1  4  2  0  0  0  0
  2  3  1  0  0  0  0
  5  4  1  0  0  0  0
  5 10  1  0  0  0  0
  6  5  2  0  0  0  0
  7  8  2  0  0  0  0
  7  6  1  0  0  0  0
  8  1  1  0  0  0  0
  9 15  1  0  0  0  0
 11  6  1  0  0  0  0
 12  7  1  0  0  0  0
 13  8  1  0  0  0  0
 14 17  2  0  0  0  0
 14 15  1  0  0  0  0
 16 14  2  0  0  0  0
 18 14  1  0  0  0  0
 19 18  1  0  0  0  0
M  RAD  3   2   2   3   3   4   2
M  END
