Coordinates from ORCA-job PhN2+~HSO4-_B3LYPG-6-31G_dp-CH-Scan-d09-49-n800
 OpenBabel11261919183D

 19 18  0  0  0  0  0  0  0  0999 V2000
   -1.5938   -0.2833    0.0079 C   0  0  0  0  0  0  0  0  0  0  0  0
   -2.9514   -0.5509    0.1873 N   0  0  0  0  0  0  0  0  0  0  0  0
   -4.0447   -0.7094    0.3645 N   0  0  0  0  0  0  0  0  0  0  0  0
   -1.2332    0.9955    0.4598 C   0  0  0  0  0  0  0  0  0  0  0  0
    0.1637    1.1851    0.2476 C   0  0  0  0  0  0  0  0  0  0  0  0
    1.0018    0.2317   -0.3215 C   0  0  0  0  0  0  0  0  0  0  0  0
    0.5156   -1.0326   -0.7401 C   0  0  0  0  0  0  0  0  0  0  0  0
   -0.8207   -1.3221   -0.5800 C   0  0  0  0  0  0  0  0  0  0  0  0
   -4.3245    3.6839    1.3103 H   0  0  0  0  0  0  0  0  0  0  0  0
    0.6144    2.1331    0.5454 H   0  0  0  0  0  0  0  0  0  0  0  0
    2.0606    0.4483   -0.4559 H   0  0  0  0  0  0  0  0  0  0  0  0
    1.1881   -1.7625   -1.1791 H   0  0  0  0  0  0  0  0  0  0  0  0
   -1.2515   -2.2735   -0.8807 H   0  0  0  0  0  0  0  0  0  0  0  0
   -5.9905    3.2210    0.0470 S   0  0  0  0  0  0  0  0  0  0  0  0
   -5.1978    4.0875    1.1647 O   0  0  0  0  0  0  0  0  0  0  0  0
   -5.5457    1.8454    0.1094 O   0  0  0  0  0  0  0  0  0  0  0  0
   -7.3737    3.6325    0.1477 O   0  0  0  0  0  0  0  0  0  0  0  0
   -5.3729    3.8160   -1.3343 O   0  0  0  0  0  0  0  0  0  0  0  0
   -5.8594    4.6297   -1.5513 H   0  0  0  0  0  0  0  0  0  0  0  0
  1  2  1  0  0  0  0
  1  4  2  0  0  0  0
  2  3  1  0  0  0  0
  5  4  1  0  0  0  0
  5 10  1  0  0  0  0
  6  5  2  0  0  0  0
  7  8  2  0  0  0  0
  7  6  1  0  0  0  0
  8  1  1  0  0  0  0
 11  6  1  0  0  0  0
 12  7  1  0  0  0  0
 13  8  1  0  0  0  0
 14 16  2  0  0  0  0
 14 17  2  0  0  0  0
 14 15  1  0  0  0  0
 15  9  1  0  0  0  0
 18 14  1  0  0  0  0
 19 18  1  0  0  0  0
M  RAD  3   2   2   3   3   4   2
M  END
