Coordinates from ORCA-job PhN2+~HSO4-_B3LYPG-6-31G_dp-CH-Scan-d09-49-n800
 OpenBabel11261919183D

 19 18  0  0  0  0  0  0  0  0999 V2000
   -1.8759   -0.2089   -0.0574 C   0  0  0  0  0  0  0  0  0  0  0  0
   -3.2034   -0.6083    0.0489 N   0  0  0  0  0  0  0  0  0  0  0  0
   -4.2786   -0.8956    0.1484 N   0  0  0  0  0  0  0  0  0  0  0  0
   -1.6543    1.1422    0.2635 C   0  0  0  0  0  0  0  0  0  0  0  0
   -0.2731    1.4488    0.1320 C   0  0  0  0  0  0  0  0  0  0  0  0
    0.6917    0.5248   -0.2589 C   0  0  0  0  0  0  0  0  0  0  0  0
    0.3557   -0.8167   -0.5600 C   0  0  0  0  0  0  0  0  0  0  0  0
   -0.9585   -1.2168   -0.4627 C   0  0  0  0  0  0  0  0  0  0  0  0
   -3.6117    2.9335    0.9158 H   0  0  0  0  0  0  0  0  0  0  0  0
    0.0607    2.4631    0.3489 H   0  0  0  0  0  0  0  0  0  0  0  0
    1.7336    0.8293   -0.3395 H   0  0  0  0  0  0  0  0  0  0  0  0
    1.1227   -1.5216   -0.8635 H   0  0  0  0  0  0  0  0  0  0  0  0
   -1.2746   -2.2326   -0.6829 H   0  0  0  0  0  0  0  0  0  0  0  0
   -5.5923    3.0502    0.1087 S   0  0  0  0  0  0  0  0  0  0  0  0
   -4.3784    3.5339    1.0428 O   0  0  0  0  0  0  0  0  0  0  0  0
   -5.5790    1.6059   -0.0134 O   0  0  0  0  0  0  0  0  0  0  0  0
   -6.7519    3.8014    0.5430 O   0  0  0  0  0  0  0  0  0  0  0  0
   -5.1429    3.6040   -1.3568 O   0  0  0  0  0  0  0  0  0  0  0  0
   -5.4053    4.5386   -1.4082 H   0  0  0  0  0  0  0  0  0  0  0  0
  1  2  1  0  0  0  0
  1  4  2  0  0  0  0
  2  3  1  0  0  0  0
  5  4  1  0  0  0  0
  5 10  1  0  0  0  0
  6  5  2  0  0  0  0
  7  8  2  0  0  0  0
  7  6  1  0  0  0  0
  8  1  1  0  0  0  0
  9 15  1  0  0  0  0
 11  6  1  0  0  0  0
 12  7  1  0  0  0  0
 13  8  1  0  0  0  0
 14 17  2  0  0  0  0
 14 15  1  0  0  0  0
 16 14  2  0  0  0  0
 18 14  1  0  0  0  0
 19 18  1  0  0  0  0
M  RAD  3   2   2   3   3   4   2
M  END
