Coordinates from ORCA-job PhN2+~HSO4-_B3LYPG-6-31G_dp-CH-Scan-d09-49-n800
 OpenBabel11261919183D

 19 18  0  0  0  0  0  0  0  0999 V2000
   -2.0146    0.1191   -0.4214 C   0  0  0  0  0  0  0  0  0  0  0  0
   -3.3537   -0.0648   -0.7524 N   0  0  0  0  0  0  0  0  0  0  0  0
   -4.4713    0.0627   -0.8221 N   0  0  0  0  0  0  0  0  0  0  0  0
   -1.5972    1.4173   -0.0926 C   0  0  0  0  0  0  0  0  0  0  0  0
   -0.2531    1.5735    0.2376 C   0  0  0  0  0  0  0  0  0  0  0  0
    0.6139    0.4769    0.2391 C   0  0  0  0  0  0  0  0  0  0  0  0
    0.1617   -0.8055   -0.1041 C   0  0  0  0  0  0  0  0  0  0  0  0
   -1.1671   -1.0006   -0.4524 C   0  0  0  0  0  0  0  0  0  0  0  0
   -2.4163    2.3403   -0.1504 H   0  0  0  0  0  0  0  0  0  0  0  0
    0.1163    2.5602    0.4967 H   0  0  0  0  0  0  0  0  0  0  0  0
    1.6569    0.6187    0.5061 H   0  0  0  0  0  0  0  0  0  0  0  0
    0.8468   -1.6464   -0.1028 H   0  0  0  0  0  0  0  0  0  0  0  0
   -1.5510   -1.9767   -0.7275 H   0  0  0  0  0  0  0  0  0  0  0  0
   -5.0454    3.0218    0.1450 S   0  0  0  0  0  0  0  0  0  0  0  0
   -3.8079    3.3429   -0.6086 O   0  0  0  0  0  0  0  0  0  0  0  0
   -5.0207    1.6022    0.6576 O   0  0  0  0  0  0  0  0  0  0  0  0
   -5.4985    3.9842    1.1520 O   0  0  0  0  0  0  0  0  0  0  0  0
   -6.1986    3.0302   -1.0432 O   0  0  0  0  0  0  0  0  0  0  0  0
   -7.0158    3.3193   -0.6078 H   0  0  0  0  0  0  0  0  0  0  0  0
  1  4  1  0  0  0  0
  2  1  1  0  0  0  0
  3  2  1  0  0  0  0
  4  5  2  0  0  0  0
  5  6  1  0  0  0  0
  5 10  1  0  0  0  0
  6 11  1  0  0  0  0
  7 12  1  0  0  0  0
  7  6  2  0  0  0  0
  8  1  2  0  0  0  0
  8  7  1  0  0  0  0
  9  4  1  0  0  0  0
 13  8  1  0  0  0  0
 14 16  2  0  0  0  0
 14 17  1  0  0  0  0
 15 14  2  0  0  0  0
 18 19  1  0  0  0  0
 18 14  1  0  0  0  0
M  RAD  3   2   2   3   3  17   2
M  END
