Coordinates from ORCA-job PhN2+~HSO4-_B3LYPG-6-31G_dp-CH-Scan-d09-49-n800
 OpenBabel11261919183D

 19 18  0  0  0  0  0  0  0  0999 V2000
   -2.0502   -0.0906   -0.2400 C   0  0  0  0  0  0  0  0  0  0  0  0
   -3.3712   -0.5025   -0.3421 N   0  0  0  0  0  0  0  0  0  0  0  0
   -4.4418   -0.8071   -0.4197 N   0  0  0  0  0  0  0  0  0  0  0  0
   -1.8522    1.2757    0.0346 C   0  0  0  0  0  0  0  0  0  0  0  0
   -0.4730    1.5804    0.1166 C   0  0  0  0  0  0  0  0  0  0  0  0
    0.5353    0.6351   -0.0551 C   0  0  0  0  0  0  0  0  0  0  0  0
    0.2381   -0.7173   -0.3304 C   0  0  0  0  0  0  0  0  0  0  0  0
   -1.0796   -1.1093   -0.4293 C   0  0  0  0  0  0  0  0  0  0  0  0
   -3.0760    2.5404    0.3089 H   0  0  0  0  0  0  0  0  0  0  0  0
   -0.1804    2.6070    0.3282 H   0  0  0  0  0  0  0  0  0  0  0  0
    1.5778    0.9358    0.0231 H   0  0  0  0  0  0  0  0  0  0  0  0
    1.0350   -1.4414   -0.4630 H   0  0  0  0  0  0  0  0  0  0  0  0
   -1.3640   -2.1358   -0.6406 H   0  0  0  0  0  0  0  0  0  0  0  0
   -5.2287    2.9761    0.3179 S   0  0  0  0  0  0  0  0  0  0  0  0
   -3.7182    3.3518    0.5230 O   0  0  0  0  0  0  0  0  0  0  0  0
   -5.4255    1.5425    0.4928 O   0  0  0  0  0  0  0  0  0  0  0  0
   -6.0449    3.9504    1.0210 O   0  0  0  0  0  0  0  0  0  0  0  0
   -5.4526    3.2195   -1.2900 O   0  0  0  0  0  0  0  0  0  0  0  0
   -5.6433    4.1646   -1.4071 H   0  0  0  0  0  0  0  0  0  0  0  0
  1  4  2  0  0  0  0
  2  1  1  0  0  0  0
  3  2  1  0  0  0  0
  4  5  1  0  0  0  0
  5 10  1  0  0  0  0
  6 11  1  0  0  0  0
  6  5  2  0  0  0  0
  7  6  1  0  0  0  0
  8  7  2  0  0  0  0
  8  1  1  0  0  0  0
  9 15  1  0  0  0  0
 12  7  1  0  0  0  0
 13  8  1  0  0  0  0
 14 16  2  0  0  0  0
 14 15  1  0  0  0  0
 14 17  2  0  0  0  0
 18 14  1  0  0  0  0
 19 18  1  0  0  0  0
M  RAD  3   2   2   3   3   4   2
M  END
