Coordinates from ORCA-job PhN2+~HSO4-_B3LYPG-6-31G_dp-CH-Scan-d09-49-n800
 OpenBabel11261919183D

 19 18  0  0  0  0  0  0  0  0999 V2000
   -1.6951   -0.2324    0.8542 C   0  0  0  0  0  0  0  0  0  0  0  0
   -2.8451   -0.8156    1.3942 N   0  0  0  0  0  0  0  0  0  0  0  0
   -3.7169   -1.3045    1.8955 N   0  0  0  0  0  0  0  0  0  0  0  0
   -0.5811   -0.4025    1.6878 C   0  0  0  0  0  0  0  0  0  0  0  0
    0.5454    0.2398    1.0885 C   0  0  0  0  0  0  0  0  0  0  0  0
    0.5005    0.9200   -0.1232 C   0  0  0  0  0  0  0  0  0  0  0  0
   -0.6936    1.0058   -0.8862 C   0  0  0  0  0  0  0  0  0  0  0  0
   -1.8416    0.4137   -0.4045 C   0  0  0  0  0  0  0  0  0  0  0  0
   -3.2264    3.0950   -0.4532 H   0  0  0  0  0  0  0  0  0  0  0  0
    1.5050    0.2020    1.6062 H   0  0  0  0  0  0  0  0  0  0  0  0
    1.3992    1.3938   -0.5151 H   0  0  0  0  0  0  0  0  0  0  0  0
   -0.6936    1.5089   -1.8483 H   0  0  0  0  0  0  0  0  0  0  0  0
   -2.7807    0.4128   -0.9501 H   0  0  0  0  0  0  0  0  0  0  0  0
   -5.2991    2.5520   -0.5300 S   0  0  0  0  0  0  0  0  0  0  0  0
   -4.0570    3.5917   -0.5648 O   0  0  0  0  0  0  0  0  0  0  0  0
   -4.9340    1.4065    0.2793 O   0  0  0  0  0  0  0  0  0  0  0  0
   -6.4807    3.3553   -0.3152 O   0  0  0  0  0  0  0  0  0  0  0  0
   -5.3085    2.0019   -2.0608 O   0  0  0  0  0  0  0  0  0  0  0  0
   -5.8124    2.6310   -2.6055 H   0  0  0  0  0  0  0  0  0  0  0  0
  1  2  1  0  0  0  0
  1  4  2  0  0  0  0
  2  3  1  0  0  0  0
  5 10  1  0  0  0  0
  5  4  1  0  0  0  0
  6  5  2  0  0  0  0
  7  8  2  0  0  0  0
  7  6  1  0  0  0  0
  8  1  1  0  0  0  0
 11  6  1  0  0  0  0
 12  7  1  0  0  0  0
 13  8  1  0  0  0  0
 14 17  2  0  0  0  0
 14 16  2  0  0  0  0
 15 14  1  0  0  0  0
 15  9  1  0  0  0  0
 18 14  1  0  0  0  0
 19 18  1  0  0  0  0
M  RAD  3   2   2   3   3   4   2
M  END
