Coordinates from ORCA-job PhN2+~HSO4-_B3LYPG-6-31G_dp-CH-Scan-d09-49-n800
 OpenBabel11261919183D

 19 18  0  0  0  0  0  0  0  0999 V2000
   -2.0537   -0.0829   -0.2509 C   0  0  0  0  0  0  0  0  0  0  0  0
   -3.3750   -0.4904   -0.3655 N   0  0  0  0  0  0  0  0  0  0  0  0
   -4.4458   -0.7913   -0.4529 N   0  0  0  0  0  0  0  0  0  0  0  0
   -1.8523    1.2829    0.0241 C   0  0  0  0  0  0  0  0  0  0  0  0
   -0.4734    1.5832    0.1188 C   0  0  0  0  0  0  0  0  0  0  0  0
    0.5332    0.6341   -0.0425 C   0  0  0  0  0  0  0  0  0  0  0  0
    0.2335   -0.7174   -0.3191 C   0  0  0  0  0  0  0  0  0  0  0  0
   -1.0847   -1.1047   -0.4300 C   0  0  0  0  0  0  0  0  0  0  0  0
   -3.0576    2.5336    0.2824 H   0  0  0  0  0  0  0  0  0  0  0  0
   -0.1798    2.6092    0.3321 H   0  0  0  0  0  0  0  0  0  0  0  0
    1.5759    0.9312    0.0452 H   0  0  0  0  0  0  0  0  0  0  0  0
    1.0288   -1.4446   -0.4434 H   0  0  0  0  0  0  0  0  0  0  0  0
   -1.3707   -2.1304   -0.6428 H   0  0  0  0  0  0  0  0  0  0  0  0
   -5.2139    2.9742    0.3260 S   0  0  0  0  0  0  0  0  0  0  0  0
   -3.7012    3.3541    0.4892 O   0  0  0  0  0  0  0  0  0  0  0  0
   -5.4036    1.5419    0.5219 O   0  0  0  0  0  0  0  0  0  0  0  0
   -6.0180    3.9536    1.0366 O   0  0  0  0  0  0  0  0  0  0  0  0
   -5.4785    3.1983   -1.2792 O   0  0  0  0  0  0  0  0  0  0  0  0
   -5.6787    4.1408   -1.4013 H   0  0  0  0  0  0  0  0  0  0  0  0
  1  4  2  0  0  0  0
  2  1  1  0  0  0  0
  3  2  1  0  0  0  0
  4  5  1  0  0  0  0
  5 10  1  0  0  0  0
  6 11  1  0  0  0  0
  6  5  2  0  0  0  0
  7  6  1  0  0  0  0
  8  7  2  0  0  0  0
  8  1  1  0  0  0  0
  9 15  1  0  0  0  0
 12  7  1  0  0  0  0
 13  8  1  0  0  0  0
 14 15  1  0  0  0  0
 14 16  2  0  0  0  0
 14 17  2  0  0  0  0
 18 14  1  0  0  0  0
 19 18  1  0  0  0  0
M  RAD  3   2   2   3   3   4   2
M  END
