Coordinates from ORCA-job PhN2+~HSO4-_B3LYPG-6-31G_dp-CH-Scan-d09-49-n800
 OpenBabel11261919183D

 19 18  0  0  0  0  0  0  0  0999 V2000
   -1.5502   -0.2857    0.0530 C   0  0  0  0  0  0  0  0  0  0  0  0
   -2.9074   -0.5307    0.2684 N   0  0  0  0  0  0  0  0  0  0  0  0
   -3.9978   -0.6690    0.4780 N   0  0  0  0  0  0  0  0  0  0  0  0
   -1.1469    0.9616    0.5527 C   0  0  0  0  0  0  0  0  0  0  0  0
    0.2461    1.1326    0.3011 C   0  0  0  0  0  0  0  0  0  0  0  0
    1.0425    0.1911   -0.3429 C   0  0  0  0  0  0  0  0  0  0  0  0
    0.5141   -1.0410   -0.8042 C   0  0  0  0  0  0  0  0  0  0  0  0
   -0.8220   -1.3107   -0.6109 C   0  0  0  0  0  0  0  0  0  0  0  0
   -4.4581    3.7761    1.3561 H   0  0  0  0  0  0  0  0  0  0  0  0
    0.7278    2.0554    0.6282 H   0  0  0  0  0  0  0  0  0  0  0  0
    2.1006    0.3922   -0.5045 H   0  0  0  0  0  0  0  0  0  0  0  0
    1.1548   -1.7623   -1.3014 H   0  0  0  0  0  0  0  0  0  0  0  0
   -1.2840   -2.2375   -0.9410 H   0  0  0  0  0  0  0  0  0  0  0  0
   -6.0396    3.2326    0.0190 S   0  0  0  0  0  0  0  0  0  0  0  0
   -5.3351    4.1479    1.1577 O   0  0  0  0  0  0  0  0  0  0  0  0
   -5.5395    1.8788    0.1245 O   0  0  0  0  0  0  0  0  0  0  0  0
   -7.4420    3.5861    0.0505 O   0  0  0  0  0  0  0  0  0  0  0  0
   -5.3845    3.8343   -1.3417 O   0  0  0  0  0  0  0  0  0  0  0  0
   -5.8944    4.6233   -1.5940 H   0  0  0  0  0  0  0  0  0  0  0  0
  1  2  1  0  0  0  0
  1  4  2  0  0  0  0
  2  3  1  0  0  0  0
  5  4  1  0  0  0  0
  5 10  1  0  0  0  0
  6  5  2  0  0  0  0
  7  8  2  0  0  0  0
  7  6  1  0  0  0  0
  8  1  1  0  0  0  0
 11  6  1  0  0  0  0
 12  7  1  0  0  0  0
 13  8  1  0  0  0  0
 14 17  2  0  0  0  0
 14 16  2  0  0  0  0
 14 15  1  0  0  0  0
 15  9  1  0  0  0  0
 18 14  1  0  0  0  0
 19 18  1  0  0  0  0
M  RAD  3   2   2   3   3   4   2
M  END
