Coordinates from ORCA-job PhN2+~HSO4-_B3LYPG-6-31G_dp-CH-Scan-d09-49-n800
 OpenBabel11261919183D

 19 18  0  0  0  0  0  0  0  0999 V2000
   -2.0613   -0.1584    0.0120 C   0  0  0  0  0  0  0  0  0  0  0  0
   -3.3539   -0.6378    0.1668 N   0  0  0  0  0  0  0  0  0  0  0  0
   -4.4022   -0.9947    0.3016 N   0  0  0  0  0  0  0  0  0  0  0  0
   -1.8944    1.2185    0.2528 C   0  0  0  0  0  0  0  0  0  0  0  0
   -0.5435    1.6014    0.0784 C   0  0  0  0  0  0  0  0  0  0  0  0
    0.4661    0.7127   -0.2838 C   0  0  0  0  0  0  0  0  0  0  0  0
    0.1997   -0.6564   -0.5054 C   0  0  0  0  0  0  0  0  0  0  0  0
   -1.0887   -1.1238   -0.3582 C   0  0  0  0  0  0  0  0  0  0  0  0
   -3.2313    2.3876    0.6781 H   0  0  0  0  0  0  0  0  0  0  0  0
   -0.2742    2.6442    0.2352 H   0  0  0  0  0  0  0  0  0  0  0  0
    1.4860    1.0716   -0.4022 H   0  0  0  0  0  0  0  0  0  0  0  0
    0.9979   -1.3344   -0.7883 H   0  0  0  0  0  0  0  0  0  0  0  0
   -1.3490   -2.1657   -0.5186 H   0  0  0  0  0  0  0  0  0  0  0  0
   -5.2540    2.8885    0.0247 S   0  0  0  0  0  0  0  0  0  0  0  0
   -3.9783    3.0773    0.9274 O   0  0  0  0  0  0  0  0  0  0  0  0
   -5.3629    1.5029   -0.4121 O   0  0  0  0  0  0  0  0  0  0  0  0
   -6.3627    3.5817    0.6577 O   0  0  0  0  0  0  0  0  0  0  0  0
   -4.8722    3.7191   -1.3355 O   0  0  0  0  0  0  0  0  0  0  0  0
   -5.1366    4.6411   -1.1818 H   0  0  0  0  0  0  0  0  0  0  0  0
  1  2  1  0  0  0  0
  1  4  2  0  0  0  0
  2  3  1  0  0  0  0
  5 10  1  0  0  0  0
  5  4  1  0  0  0  0
  6  5  2  0  0  0  0
  7  8  2  0  0  0  0
  7  6  1  0  0  0  0
  8  1  1  0  0  0  0
  9 15  1  0  0  0  0
 11  6  1  0  0  0  0
 12  7  1  0  0  0  0
 13  8  1  0  0  0  0
 14 17  2  0  0  0  0
 14 15  1  0  0  0  0
 16 14  2  0  0  0  0
 18 19  1  0  0  0  0
 18 14  1  0  0  0  0
M  RAD  3   2   2   3   3   4   2
M  END
