Coordinates from ORCA-job PhN2+~HSO4-_B3LYPG-6-31G_dp-CH-Scan-d09-49-n800
 OpenBabel11261919183D

 19 18  0  0  0  0  0  0  0  0999 V2000
   -2.0165   -0.1703   -0.0391 C   0  0  0  0  0  0  0  0  0  0  0  0
   -3.3201   -0.6338    0.0726 N   0  0  0  0  0  0  0  0  0  0  0  0
   -4.3774   -0.9775    0.1725 N   0  0  0  0  0  0  0  0  0  0  0  0
   -1.8448    1.2010    0.2280 C   0  0  0  0  0  0  0  0  0  0  0  0
   -0.4817    1.5654    0.0953 C   0  0  0  0  0  0  0  0  0  0  0  0
    0.5259    0.6694   -0.2525 C   0  0  0  0  0  0  0  0  0  0  0  0
    0.2491   -0.6936   -0.5031 C   0  0  0  0  0  0  0  0  0  0  0  0
   -1.0483   -1.1456   -0.3985 C   0  0  0  0  0  0  0  0  0  0  0  0
   -3.3177    2.5319    0.7037 H   0  0  0  0  0  0  0  0  0  0  0  0
   -0.1995    2.6013    0.2757 H   0  0  0  0  0  0  0  0  0  0  0  0
    1.5536    1.0163   -0.3367 H   0  0  0  0  0  0  0  0  0  0  0  0
    1.0467   -1.3771   -0.7745 H   0  0  0  0  0  0  0  0  0  0  0  0
   -1.3180   -2.1815   -0.5818 H   0  0  0  0  0  0  0  0  0  0  0  0
   -5.3507    2.9442    0.0937 S   0  0  0  0  0  0  0  0  0  0  0  0
   -4.0353    3.2109    0.9378 O   0  0  0  0  0  0  0  0  0  0  0  0
   -5.5005    1.5229   -0.1730 O   0  0  0  0  0  0  0  0  0  0  0  0
   -6.4094    3.7394    0.6867 O   0  0  0  0  0  0  0  0  0  0  0  0
   -4.9883    3.6010   -1.3598 O   0  0  0  0  0  0  0  0  0  0  0  0
   -5.1827    4.5510   -1.2983 H   0  0  0  0  0  0  0  0  0  0  0  0
  1  2  1  0  0  0  0
  1  4  2  0  0  0  0
  2  3  1  0  0  0  0
  5  4  1  0  0  0  0
  5 10  1  0  0  0  0
  6  5  2  0  0  0  0
  7  8  2  0  0  0  0
  7  6  1  0  0  0  0
  8  1  1  0  0  0  0
  9 15  1  0  0  0  0
 11  6  1  0  0  0  0
 12  7  1  0  0  0  0
 13  8  1  0  0  0  0
 14 17  2  0  0  0  0
 14 15  1  0  0  0  0
 16 14  2  0  0  0  0
 18 19  1  0  0  0  0
 18 14  1  0  0  0  0
M  RAD  3   2   2   3   3   4   2
M  END
