Coordinates from ORCA-job PhN2+~HSO4-_B3LYPG-6-31G_dp-CH-Scan-d09-49-n800
 OpenBabel11261919183D

 19 18  0  0  0  0  0  0  0  0999 V2000
   -1.7723   -0.2415   -0.0524 C   0  0  0  0  0  0  0  0  0  0  0  0
   -3.1138   -0.5951    0.0665 N   0  0  0  0  0  0  0  0  0  0  0  0
   -4.1994   -0.8369    0.1809 N   0  0  0  0  0  0  0  0  0  0  0  0
   -1.5120    1.0926    0.3045 C   0  0  0  0  0  0  0  0  0  0  0  0
   -0.1213    1.3577    0.1584 C   0  0  0  0  0  0  0  0  0  0  0  0
    0.8084    0.4170   -0.2743 C   0  0  0  0  0  0  0  0  0  0  0  0
    0.4273   -0.9059   -0.6079 C   0  0  0  0  0  0  0  0  0  0  0  0
   -0.8966   -1.2684   -0.5010 C   0  0  0  0  0  0  0  0  0  0  0  0
   -3.8458    3.2172    1.0718 H   0  0  0  0  0  0  0  0  0  0  0  0
    0.2494    2.3548    0.3979 H   0  0  0  0  0  0  0  0  0  0  0  0
    1.8582    0.6916   -0.3638 H   0  0  0  0  0  0  0  0  0  0  0  0
    1.1685   -1.6242   -0.9427 H   0  0  0  0  0  0  0  0  0  0  0  0
   -1.2481   -2.2675   -0.7438 H   0  0  0  0  0  0  0  0  0  0  0  0
   -5.7493    3.1214    0.0965 S   0  0  0  0  0  0  0  0  0  0  0  0
   -4.6581    3.7562    1.1030 O   0  0  0  0  0  0  0  0  0  0  0  0
   -5.5785    1.6846    0.0365 O   0  0  0  0  0  0  0  0  0  0  0  0
   -7.0023    3.7691    0.4211 O   0  0  0  0  0  0  0  0  0  0  0  0
   -5.2417    3.6753   -1.3473 O   0  0  0  0  0  0  0  0  0  0  0  0
   -5.5883    4.5773   -1.4550 H   0  0  0  0  0  0  0  0  0  0  0  0
  1  2  1  0  0  0  0
  1  4  2  0  0  0  0
  2  3  1  0  0  0  0
  5  4  1  0  0  0  0
  5 10  1  0  0  0  0
  6  5  2  0  0  0  0
  7  8  2  0  0  0  0
  7  6  1  0  0  0  0
  8  1  1  0  0  0  0
  9 15  1  0  0  0  0
 11  6  1  0  0  0  0
 12  7  1  0  0  0  0
 13  8  1  0  0  0  0
 14 17  2  0  0  0  0
 14 15  1  0  0  0  0
 16 14  2  0  0  0  0
 18 14  1  0  0  0  0
 19 18  1  0  0  0  0
M  RAD  3   2   2   3   3   4   2
M  END
