Coordinates from ORCA-job PhN2+~HSO4-_B3LYPG-6-31G_dp-CH-Scan-d09-49-n800
 OpenBabel11261919183D

 19 18  0  0  0  0  0  0  0  0999 V2000
   -1.6563   -0.2723   -0.0339 C   0  0  0  0  0  0  0  0  0  0  0  0
   -3.0114   -0.5698    0.1071 N   0  0  0  0  0  0  0  0  0  0  0  0
   -4.1053   -0.7565    0.2477 N   0  0  0  0  0  0  0  0  0  0  0  0
   -1.3401    1.0330    0.3757 C   0  0  0  0  0  0  0  0  0  0  0  0
    0.0584    1.2477    0.2051 C   0  0  0  0  0  0  0  0  0  0  0  0
    0.9386    0.2921   -0.2926 C   0  0  0  0  0  0  0  0  0  0  0  0
    0.4970   -0.9995   -0.6745 C   0  0  0  0  0  0  0  0  0  0  0  0
   -0.8374   -1.3144   -0.5498 C   0  0  0  0  0  0  0  0  0  0  0  0
   -4.1305    3.5472    1.2152 H   0  0  0  0  0  0  0  0  0  0  0  0
    0.4761    2.2177    0.4785 H   0  0  0  0  0  0  0  0  0  0  0  0
    1.9964    0.5288   -0.3976 H   0  0  0  0  0  0  0  0  0  0  0  0
    1.2011   -1.7304   -1.0588 H   0  0  0  0  0  0  0  0  0  0  0  0
   -1.2352   -2.2872   -0.8261 H   0  0  0  0  0  0  0  0  0  0  0  0
   -5.9112    3.1923    0.0795 S   0  0  0  0  0  0  0  0  0  0  0  0
   -4.9924    3.9938    1.1454 O   0  0  0  0  0  0  0  0  0  0  0  0
   -5.5535    1.7901    0.0969 O   0  0  0  0  0  0  0  0  0  0  0  0
   -7.2560    3.6873    0.2792 O   0  0  0  0  0  0  0  0  0  0  0  0
   -5.3544    3.7643   -1.3376 O   0  0  0  0  0  0  0  0  0  0  0  0
   -5.7996    4.6113   -1.5110 H   0  0  0  0  0  0  0  0  0  0  0  0
  1  2  1  0  0  0  0
  1  4  2  0  0  0  0
  2  3  1  0  0  0  0
  5  4  1  0  0  0  0
  5 10  1  0  0  0  0
  6  5  2  0  0  0  0
  7  8  2  0  0  0  0
  7  6  1  0  0  0  0
  8  1  1  0  0  0  0
 11  6  1  0  0  0  0
 12  7  1  0  0  0  0
 13  8  1  0  0  0  0
 14 16  2  0  0  0  0
 14 17  2  0  0  0  0
 14 15  1  0  0  0  0
 15  9  1  0  0  0  0
 18 14  1  0  0  0  0
 19 18  1  0  0  0  0
M  RAD  3   2   2   3   3   4   2
M  END
