Coordinates from ORCA-job PhN2+~HSO4-_B3LYPG-6-31G_dp-CH-Scan-d09-49-n800
 OpenBabel11261919183D

 19 18  0  0  0  0  0  0  0  0999 V2000
   -1.6472   -0.2744   -0.0292 C   0  0  0  0  0  0  0  0  0  0  0  0
   -3.0028   -0.5677    0.1166 N   0  0  0  0  0  0  0  0  0  0  0  0
   -4.0971   -0.7502    0.2604 N   0  0  0  0  0  0  0  0  0  0  0  0
   -1.3256    1.0283    0.3841 C   0  0  0  0  0  0  0  0  0  0  0  0
    0.0729    1.2394    0.2082 C   0  0  0  0  0  0  0  0  0  0  0  0
    0.9480    0.2831   -0.2970 C   0  0  0  0  0  0  0  0  0  0  0  0
    0.5009   -1.0057   -0.6819 C   0  0  0  0  0  0  0  0  0  0  0  0
   -0.8339   -1.3171   -0.5526 C   0  0  0  0  0  0  0  0  0  0  0  0
   -4.1594    3.5683    1.2319 H   0  0  0  0  0  0  0  0  0  0  0  0
    0.4947    2.2072    0.4835 H   0  0  0  0  0  0  0  0  0  0  0  0
    2.0060    0.5171   -0.4059 H   0  0  0  0  0  0  0  0  0  0  0  0
    1.2012   -1.7372   -1.0720 H   0  0  0  0  0  0  0  0  0  0  0  0
   -1.2358   -2.2878   -0.8308 H   0  0  0  0  0  0  0  0  0  0  0  0
   -5.9231    3.1969    0.0752 S   0  0  0  0  0  0  0  0  0  0  0  0
   -5.0238    4.0078    1.1510 O   0  0  0  0  0  0  0  0  0  0  0  0
   -5.5512    1.7985    0.0977 O   0  0  0  0  0  0  0  0  0  0  0  0
   -7.2748    3.6787    0.2599 O   0  0  0  0  0  0  0  0  0  0  0  0
   -5.3563    3.7739   -1.3357 O   0  0  0  0  0  0  0  0  0  0  0  0
   -5.8081    4.6163   -1.5147 H   0  0  0  0  0  0  0  0  0  0  0  0
  1  2  1  0  0  0  0
  1  4  2  0  0  0  0
  2  3  1  0  0  0  0
  5  4  1  0  0  0  0
  5 10  1  0  0  0  0
  6  5  2  0  0  0  0
  7  8  2  0  0  0  0
  7  6  1  0  0  0  0
  8  1  1  0  0  0  0
 11  6  1  0  0  0  0
 12  7  1  0  0  0  0
 13  8  1  0  0  0  0
 14 16  2  0  0  0  0
 14 17  2  0  0  0  0
 14 15  1  0  0  0  0
 15  9  1  0  0  0  0
 18 14  1  0  0  0  0
 19 18  1  0  0  0  0
M  RAD  3   2   2   3   3   4   2
M  END
