Coordinates from ORCA-job PhN2+~HSO4-_B3LYPG-6-31G_dp-CH-Scan-d09-49-n800
 OpenBabel11261919183D

 19 18  0  0  0  0  0  0  0  0999 V2000
   -1.9125   -0.1982   -0.0592 C   0  0  0  0  0  0  0  0  0  0  0  0
   -3.2348   -0.6137    0.0426 N   0  0  0  0  0  0  0  0  0  0  0  0
   -4.3058   -0.9164    0.1387 N   0  0  0  0  0  0  0  0  0  0  0  0
   -1.7049    1.1587    0.2479 C   0  0  0  0  0  0  0  0  0  0  0  0
   -0.3274    1.4800    0.1219 C   0  0  0  0  0  0  0  0  0  0  0  0
    0.6499    0.5625   -0.2532 C   0  0  0  0  0  0  0  0  0  0  0  0
    0.3301   -0.7852   -0.5420 C   0  0  0  0  0  0  0  0  0  0  0  0
   -0.9804   -1.1986   -0.4482 C   0  0  0  0  0  0  0  0  0  0  0  0
   -3.5319    2.8337    0.8554 H   0  0  0  0  0  0  0  0  0  0  0  0
   -0.0072    2.5003    0.3301 H   0  0  0  0  0  0  0  0  0  0  0  0
    1.6887    0.8778   -0.3305 H   0  0  0  0  0  0  0  0  0  0  0  0
    1.1063   -1.4850   -0.8336 H   0  0  0  0  0  0  0  0  0  0  0  0
   -1.2838   -2.2199   -0.6597 H   0  0  0  0  0  0  0  0  0  0  0  0
   -5.5339    3.0249    0.1129 S   0  0  0  0  0  0  0  0  0  0  0  0
   -4.2824    3.4531    1.0172 O   0  0  0  0  0  0  0  0  0  0  0  0
   -5.5735    1.5825   -0.0333 O   0  0  0  0  0  0  0  0  0  0  0  0
   -6.6590    3.8038    0.5881 O   0  0  0  0  0  0  0  0  0  0  0  0
   -5.1096    3.5861   -1.3585 O   0  0  0  0  0  0  0  0  0  0  0  0
   -5.3435    4.5291   -1.3878 H   0  0  0  0  0  0  0  0  0  0  0  0
  1  2  1  0  0  0  0
  1  4  2  0  0  0  0
  2  3  1  0  0  0  0
  5  4  1  0  0  0  0
  5 10  1  0  0  0  0
  6  5  2  0  0  0  0
  7  8  2  0  0  0  0
  7  6  1  0  0  0  0
  8  1  1  0  0  0  0
  9 15  1  0  0  0  0
 11  6  1  0  0  0  0
 12  7  1  0  0  0  0
 13  8  1  0  0  0  0
 14 17  2  0  0  0  0
 14 15  1  0  0  0  0
 16 14  2  0  0  0  0
 18 14  1  0  0  0  0
 19 18  1  0  0  0  0
M  RAD  3   2   2   3   3   4   2
M  END
