Coordinates from ORCA-job PhN2+~HSO4-_B3LYPG-6-31G_dp-CH-Scan-d09-49-n800
 OpenBabel11261919183D

 19 18  0  0  0  0  0  0  0  0999 V2000
   -1.9806    0.3245   -0.0805 C   0  0  0  0  0  0  0  0  0  0  0  0
   -3.3728    0.1860   -0.0797 N   0  0  0  0  0  0  0  0  0  0  0  0
   -4.3897   -0.2914   -0.0975 N   0  0  0  0  0  0  0  0  0  0  0  0
   -1.3893    1.5402    0.2763 C   0  0  0  0  0  0  0  0  0  0  0  0
    0.0014    1.5989    0.2912 C   0  0  0  0  0  0  0  0  0  0  0  0
    0.7618    0.4769   -0.0486 C   0  0  0  0  0  0  0  0  0  0  0  0
    0.1442   -0.7284   -0.4074 C   0  0  0  0  0  0  0  0  0  0  0  0
   -1.2407   -0.8221   -0.4239 C   0  0  0  0  0  0  0  0  0  0  0  0
   -2.0847    2.4386    0.5125 H   0  0  0  0  0  0  0  0  0  0  0  0
    0.4908    2.5276    0.5642 H   0  0  0  0  0  0  0  0  0  0  0  0
    1.8461    0.5385   -0.0371 H   0  0  0  0  0  0  0  0  0  0  0  0
    0.7424   -1.5940   -0.6716 H   0  0  0  0  0  0  0  0  0  0  0  0
   -1.7468   -1.7425   -0.6931 H   0  0  0  0  0  0  0  0  0  0  0  0
   -5.4180    2.7082    0.0470 S   0  0  0  0  0  0  0  0  0  0  0  0
   -3.9386    2.6259   -0.1384 O   0  0  0  0  0  0  0  0  0  0  0  0
   -5.9963    1.3474    0.2363 O   0  0  0  0  0  0  0  0  0  0  0  0
   -5.8893    3.7302    0.9855 O   0  0  0  0  0  0  0  0  0  0  0  0
   -5.9481    3.2131   -1.4391 O   0  0  0  0  0  0  0  0  0  0  0  0
   -6.6074    3.8978   -1.2473 H   0  0  0  0  0  0  0  0  0  0  0  0
  1  2  1  0  0  0  0
  1  4  2  0  0  0  0
  3  2  1  0  0  0  0
  4  5  1  0  0  0  0
  4  9  1  0  0  0  0
  5 10  1  0  0  0  0
  6 11  1  0  0  0  0
  6  5  2  0  0  0  0
  7  6  1  0  0  0  0
  8  7  2  0  0  0  0
  8  1  1  0  0  0  0
 12  7  1  0  0  0  0
 13  8  1  0  0  0  0
 14 16  2  0  0  0  0
 14 17  1  0  0  0  0
 15 14  2  0  0  0  0
 18 19  1  0  0  0  0
 18 14  1  0  0  0  0
M  RAD  3   2   2   3   3  17   2
M  END
