Coordinates from ORCA-job PhN2+~HSO4-_B3LYPG-6-31G_dp-CH-Scan-d09-49-n800
 OpenBabel11261919183D

 19 18  0  0  0  0  0  0  0  0999 V2000
   -1.7211   -0.2577    0.8478 C   0  0  0  0  0  0  0  0  0  0  0  0
   -2.8498   -0.8817    1.3874 N   0  0  0  0  0  0  0  0  0  0  0  0
   -3.7042   -1.4005    1.8886 N   0  0  0  0  0  0  0  0  0  0  0  0
   -0.6020   -0.3848    1.6820 C   0  0  0  0  0  0  0  0  0  0  0  0
    0.4981    0.3050    1.0852 C   0  0  0  0  0  0  0  0  0  0  0  0
    0.4261    0.9894   -0.1226 C   0  0  0  0  0  0  0  0  0  0  0  0
   -0.7691    1.0255   -0.8888 C   0  0  0  0  0  0  0  0  0  0  0  0
   -1.8917    0.3825   -0.4111 C   0  0  0  0  0  0  0  0  0  0  0  0
   -3.1146    2.9655   -0.4838 H   0  0  0  0  0  0  0  0  0  0  0  0
    1.4583    0.3035    1.6032 H   0  0  0  0  0  0  0  0  0  0  0  0
    1.3043    1.5030   -0.5106 H   0  0  0  0  0  0  0  0  0  0  0  0
   -0.7869    1.5255   -1.8525 H   0  0  0  0  0  0  0  0  0  0  0  0
   -2.8270    0.3386   -0.9616 H   0  0  0  0  0  0  0  0  0  0  0  0
   -5.2217    2.5650   -0.5149 S   0  0  0  0  0  0  0  0  0  0  0  0
   -3.9131    3.5158   -0.5850 O   0  0  0  0  0  0  0  0  0  0  0  0
   -4.9309    1.4156    0.3184 O   0  0  0  0  0  0  0  0  0  0  0  0
   -6.3436    3.4526   -0.3112 O   0  0  0  0  0  0  0  0  0  0  0  0
   -5.2833    1.9804   -2.0326 O   0  0  0  0  0  0  0  0  0  0  0  0
   -5.7433    2.6324   -2.5891 H   0  0  0  0  0  0  0  0  0  0  0  0
  1  2  1  0  0  0  0
  1  4  2  0  0  0  0
  2  3  1  0  0  0  0
  5 10  1  0  0  0  0
  5  4  1  0  0  0  0
  6  5  2  0  0  0  0
  7  8  2  0  0  0  0
  7  6  1  0  0  0  0
  8  1  1  0  0  0  0
 11  6  1  0  0  0  0
 12  7  1  0  0  0  0
 13  8  1  0  0  0  0
 14 17  2  0  0  0  0
 14 16  2  0  0  0  0
 15 14  1  0  0  0  0
 15  9  1  0  0  0  0
 18 14  1  0  0  0  0
 19 18  1  0  0  0  0
M  RAD  3   2   2   3   3   4   2
M  END
