Coordinates from ORCA-job PhN2+~HSO4-_B3LYPG-6-31G_dp-CH-Scan-d09-49-n800
 OpenBabel11261919183D

 19 18  0  0  0  0  0  0  0  0999 V2000
   -1.7150   -0.2572   -0.0533 C   0  0  0  0  0  0  0  0  0  0  0  0
   -3.0644   -0.5828    0.0682 N   0  0  0  0  0  0  0  0  0  0  0  0
   -4.1556   -0.7965    0.1880 N   0  0  0  0  0  0  0  0  0  0  0  0
   -1.4312    1.0662    0.3226 C   0  0  0  0  0  0  0  0  0  0  0  0
   -0.0352    1.3062    0.1737 C   0  0  0  0  0  0  0  0  0  0  0  0
    0.8745    0.3548   -0.2770 C   0  0  0  0  0  0  0  0  0  0  0  0
    0.4673   -0.9561   -0.6285 C   0  0  0  0  0  0  0  0  0  0  0  0
   -0.8627   -1.2952   -0.5210 C   0  0  0  0  0  0  0  0  0  0  0  0
   -3.9713    3.3699    1.1317 H   0  0  0  0  0  0  0  0  0  0  0  0
    0.3561    2.2925    0.4260 H   0  0  0  0  0  0  0  0  0  0  0  0
    1.9290    0.6107   -0.3675 H   0  0  0  0  0  0  0  0  0  0  0  0
    1.1937   -1.6831   -0.9769 H   0  0  0  0  0  0  0  0  0  0  0  0
   -1.2344   -2.2839   -0.7765 H   0  0  0  0  0  0  0  0  0  0  0  0
   -5.8330    3.1603    0.0950 S   0  0  0  0  0  0  0  0  0  0  0  0
   -4.8052    3.8729    1.1204 O   0  0  0  0  0  0  0  0  0  0  0  0
   -5.5776    1.7357    0.0679 O   0  0  0  0  0  0  0  0  0  0  0  0
   -7.1275    3.7431    0.3753 O   0  0  0  0  0  0  0  0  0  0  0  0
   -5.3153    3.7191   -1.3426 O   0  0  0  0  0  0  0  0  0  0  0  0
   -5.7076    4.5987   -1.4766 H   0  0  0  0  0  0  0  0  0  0  0  0
  1  2  1  0  0  0  0
  1  4  2  0  0  0  0
  2  3  1  0  0  0  0
  5  4  1  0  0  0  0
  5 10  1  0  0  0  0
  6  5  2  0  0  0  0
  7  8  2  0  0  0  0
  7  6  1  0  0  0  0
  8  1  1  0  0  0  0
 11  6  1  0  0  0  0
 12  7  1  0  0  0  0
 13  8  1  0  0  0  0
 14 17  2  0  0  0  0
 14 15  1  0  0  0  0
 15  9  1  0  0  0  0
 16 14  2  0  0  0  0
 18 14  1  0  0  0  0
 19 18  1  0  0  0  0
M  RAD  3   2   2   3   3   4   2
M  END
