Coordinates from ORCA-job PhN2+~HSO4-_B3LYPG-6-31G_dp-CH-Scan-d09-49-n800
 OpenBabel11261919183D

 19 18  0  0  0  0  0  0  0  0999 V2000
   -1.9544   -0.1861   -0.0577 C   0  0  0  0  0  0  0  0  0  0  0  0
   -3.2700   -0.6203    0.0420 N   0  0  0  0  0  0  0  0  0  0  0  0
   -4.3362   -0.9401    0.1327 N   0  0  0  0  0  0  0  0  0  0  0  0
   -1.7620    1.1761    0.2374 C   0  0  0  0  0  0  0  0  0  0  0  0
   -0.3895    1.5147    0.1142 C   0  0  0  0  0  0  0  0  0  0  0  0
    0.6010    0.6062   -0.2487 C   0  0  0  0  0  0  0  0  0  0  0  0
    0.2990   -0.7473   -0.5265 C   0  0  0  0  0  0  0  0  0  0  0  0
   -1.0067   -1.1762   -0.4339 C   0  0  0  0  0  0  0  0  0  0  0  0
   -3.4472    2.7182    0.7966 H   0  0  0  0  0  0  0  0  0  0  0  0
   -0.0845    2.5409    0.3146 H   0  0  0  0  0  0  0  0  0  0  0  0
    1.6359    0.9341   -0.3244 H   0  0  0  0  0  0  0  0  0  0  0  0
    1.0847   -1.4401   -0.8089 H   0  0  0  0  0  0  0  0  0  0  0  0
   -1.2962   -2.2031   -0.6377 H   0  0  0  0  0  0  0  0  0  0  0  0
   -5.4645    2.9961    0.1161 S   0  0  0  0  0  0  0  0  0  0  0  0
   -4.1779    3.3642    0.9873 O   0  0  0  0  0  0  0  0  0  0  0  0
   -5.5624    1.5577   -0.0515 O   0  0  0  0  0  0  0  0  0  0  0  0
   -6.5524    3.8044    0.6293 O   0  0  0  0  0  0  0  0  0  0  0  0
   -5.0646    3.5628   -1.3617 O   0  0  0  0  0  0  0  0  0  0  0  0
   -5.2675    4.5133   -1.3705 H   0  0  0  0  0  0  0  0  0  0  0  0
  1  2  1  0  0  0  0
  1  4  2  0  0  0  0
  2  3  1  0  0  0  0
  5  4  1  0  0  0  0
  5 10  1  0  0  0  0
  6  5  2  0  0  0  0
  7  8  2  0  0  0  0
  7  6  1  0  0  0  0
  8  1  1  0  0  0  0
  9 15  1  0  0  0  0
 11  6  1  0  0  0  0
 12  7  1  0  0  0  0
 13  8  1  0  0  0  0
 14 17  2  0  0  0  0
 14 15  1  0  0  0  0
 16 14  2  0  0  0  0
 18 14  1  0  0  0  0
 19 18  1  0  0  0  0
M  RAD  3   2   2   3   3   4   2
M  END
