Coordinates from ORCA-job PhN2+~HSO4-_B3LYPG-6-31G_dp-CH-Scan-d09-49-n800
 OpenBabel11261919183D

 19 18  0  0  0  0  0  0  0  0999 V2000
   -1.6518   -0.2733   -0.0317 C   0  0  0  0  0  0  0  0  0  0  0  0
   -3.0071   -0.5687    0.1115 N   0  0  0  0  0  0  0  0  0  0  0  0
   -4.1013   -0.7535    0.2533 N   0  0  0  0  0  0  0  0  0  0  0  0
   -1.3329    1.0308    0.3794 C   0  0  0  0  0  0  0  0  0  0  0  0
    0.0656    1.2437    0.2063 C   0  0  0  0  0  0  0  0  0  0  0  0
    0.9433    0.2876   -0.2948 C   0  0  0  0  0  0  0  0  0  0  0  0
    0.4990   -1.0028   -0.6779 C   0  0  0  0  0  0  0  0  0  0  0  0
   -0.8356   -1.3158   -0.5510 C   0  0  0  0  0  0  0  0  0  0  0  0
   -4.1448    3.5579    1.2237 H   0  0  0  0  0  0  0  0  0  0  0  0
    0.4853    2.2127    0.4804 H   0  0  0  0  0  0  0  0  0  0  0  0
    2.0012    0.5229   -0.4016 H   0  0  0  0  0  0  0  0  0  0  0  0
    1.2012   -1.7341   -1.0647 H   0  0  0  0  0  0  0  0  0  0  0  0
   -1.2354   -2.2876   -0.8280 H   0  0  0  0  0  0  0  0  0  0  0  0
   -5.9172    3.1946    0.0775 S   0  0  0  0  0  0  0  0  0  0  0  0
   -5.0082    4.0008    1.1484 O   0  0  0  0  0  0  0  0  0  0  0  0
   -5.5523    1.7942    0.0972 O   0  0  0  0  0  0  0  0  0  0  0  0
   -7.2654    3.6829    0.2698 O   0  0  0  0  0  0  0  0  0  0  0  0
   -5.3553    3.7693   -1.3365 O   0  0  0  0  0  0  0  0  0  0  0  0
   -5.8039    4.6140   -1.5125 H   0  0  0  0  0  0  0  0  0  0  0  0
  1  2  1  0  0  0  0
  1  4  2  0  0  0  0
  2  3  1  0  0  0  0
  5  4  1  0  0  0  0
  5 10  1  0  0  0  0
  6  5  2  0  0  0  0
  7  8  2  0  0  0  0
  7  6  1  0  0  0  0
  8  1  1  0  0  0  0
 11  6  1  0  0  0  0
 12  7  1  0  0  0  0
 13  8  1  0  0  0  0
 14 16  2  0  0  0  0
 14 17  2  0  0  0  0
 14 15  1  0  0  0  0
 15  9  1  0  0  0  0
 18 14  1  0  0  0  0
 19 18  1  0  0  0  0
M  RAD  3   2   2   3   3   4   2
M  END
