Coordinates from ORCA-job PhN2+~HSO4-_B3LYPG-6-31G_dp-CH-Scan-d09-49-n800
 OpenBabel11261919183D

 19 18  0  0  0  0  0  0  0  0999 V2000
   -1.5550   -0.2857    0.0450 C   0  0  0  0  0  0  0  0  0  0  0  0
   -2.9127   -0.5333    0.2540 N   0  0  0  0  0  0  0  0  0  0  0  0
   -4.0037   -0.6741    0.4587 N   0  0  0  0  0  0  0  0  0  0  0  0
   -1.1579    0.9666    0.5374 C   0  0  0  0  0  0  0  0  0  0  0  0
    0.2361    1.1393    0.2929 C   0  0  0  0  0  0  0  0  0  0  0  0
    1.0389    0.1950   -0.3389 C   0  0  0  0  0  0  0  0  0  0  0  0
    0.5166   -1.0421   -0.7938 C   0  0  0  0  0  0  0  0  0  0  0  0
   -0.8199   -1.3138   -0.6065 C   0  0  0  0  0  0  0  0  0  0  0  0
   -4.4402    3.7654    1.3492 H   0  0  0  0  0  0  0  0  0  0  0  0
    0.7133    2.0660    0.6156 H   0  0  0  0  0  0  0  0  0  0  0  0
    2.0974    0.3977   -0.4956 H   0  0  0  0  0  0  0  0  0  0  0  0
    1.1622   -1.7655   -1.2814 H   0  0  0  0  0  0  0  0  0  0  0  0
   -1.2774   -2.2444   -0.9321 H   0  0  0  0  0  0  0  0  0  0  0  0
   -6.0355    3.2327    0.0239 S   0  0  0  0  0  0  0  0  0  0  0  0
   -5.3172    4.1416    1.1590 O   0  0  0  0  0  0  0  0  0  0  0  0
   -5.5422    1.8758    0.1221 O   0  0  0  0  0  0  0  0  0  0  0  0
   -7.4356    3.5939    0.0671 O   0  0  0  0  0  0  0  0  0  0  0  0
   -5.3878    3.8340   -1.3406 O   0  0  0  0  0  0  0  0  0  0  0  0
   -5.8952    4.6263   -1.5871 H   0  0  0  0  0  0  0  0  0  0  0  0
  1  2  1  0  0  0  0
  1  4  2  0  0  0  0
  2  3  1  0  0  0  0
  5  4  1  0  0  0  0
  5 10  1  0  0  0  0
  6  5  2  0  0  0  0
  7  8  2  0  0  0  0
  7  6  1  0  0  0  0
  8  1  1  0  0  0  0
 11  6  1  0  0  0  0
 12  7  1  0  0  0  0
 13  8  1  0  0  0  0
 14 17  2  0  0  0  0
 14 16  2  0  0  0  0
 14 15  1  0  0  0  0
 15  9  1  0  0  0  0
 18 14  1  0  0  0  0
 19 18  1  0  0  0  0
M  RAD  3   2   2   3   3   4   2
M  END
