Coordinates from ORCA-job PhN2+~HSO4-_B3LYPG-6-31G_dp-CH-Scan-d09-49-n800
 OpenBabel11261919183D

 19 18  0  0  0  0  0  0  0  0999 V2000
   -2.0664    0.0010   -0.3811 C   0  0  0  0  0  0  0  0  0  0  0  0
   -3.3839   -0.3367   -0.6453 N   0  0  0  0  0  0  0  0  0  0  0  0
   -4.4575   -0.5636   -0.8396 N   0  0  0  0  0  0  0  0  0  0  0  0
   -1.8011    1.3588   -0.1315 C   0  0  0  0  0  0  0  0  0  0  0  0
   -0.4435    1.6141    0.1262 C   0  0  0  0  0  0  0  0  0  0  0  0
    0.5213    0.6075    0.1274 C   0  0  0  0  0  0  0  0  0  0  0  0
    0.1815   -0.7343   -0.1354 C   0  0  0  0  0  0  0  0  0  0  0  0
   -1.1333   -1.0632   -0.3990 C   0  0  0  0  0  0  0  0  0  0  0  0
   -2.8136    2.3976   -0.1113 H   0  0  0  0  0  0  0  0  0  0  0  0
   -0.1387    2.6360    0.3361 H   0  0  0  0  0  0  0  0  0  0  0  0
    1.5588    0.8557    0.3356 H   0  0  0  0  0  0  0  0  0  0  0  0
    0.9436   -1.5061   -0.1307 H   0  0  0  0  0  0  0  0  0  0  0  0
   -1.4432   -2.0823   -0.6065 H   0  0  0  0  0  0  0  0  0  0  0  0
   -5.0389    2.9512    0.3341 S   0  0  0  0  0  0  0  0  0  0  0  0
   -3.6188    3.3480   -0.0930 O   0  0  0  0  0  0  0  0  0  0  0  0
   -5.0972    1.5181    0.6537 O   0  0  0  0  0  0  0  0  0  0  0  0
   -5.6215    3.9178    1.2595 O   0  0  0  0  0  0  0  0  0  0  0  0
   -5.9074    3.0753   -1.0663 O   0  0  0  0  0  0  0  0  0  0  0  0
   -6.2559    3.9805   -1.0841 H   0  0  0  0  0  0  0  0  0  0  0  0
  1  4  1  0  0  0  0
  2  1  1  0  0  0  0
  3  2  1  0  0  0  0
  4  5  2  0  0  0  0
  5  6  1  0  0  0  0
  5 10  1  0  0  0  0
  6 11  1  0  0  0  0
  7 12  1  0  0  0  0
  7  6  2  0  0  0  0
  8  1  2  0  0  0  0
  8  7  1  0  0  0  0
  9 15  1  0  0  0  0
 13  8  1  0  0  0  0
 14 16  2  0  0  0  0
 14 17  2  0  0  0  0
 15 14  1  0  0  0  0
 18 14  1  0  0  0  0
 19 18  1  0  0  0  0
M  RAD  3   2   2   3   3   4   2
M  END
