Coordinates from ORCA-job PhN2+~HSO4-_B3LYPG-6-31G_dp-CH-Scan-d09-49-n800
 OpenBabel11261919183D

 19 18  0  0  0  0  0  0  0  0999 V2000
   -1.8234   -0.2255   -0.0503 C   0  0  0  0  0  0  0  0  0  0  0  0
   -3.1577   -0.6023    0.0663 N   0  0  0  0  0  0  0  0  0  0  0  0
   -4.2379   -0.8673    0.1772 N   0  0  0  0  0  0  0  0  0  0  0  0
   -1.5813    1.1161    0.2934 C   0  0  0  0  0  0  0  0  0  0  0  0
   -0.1955    1.4020    0.1493 C   0  0  0  0  0  0  0  0  0  0  0  0
    0.7498    0.4710   -0.2709 C   0  0  0  0  0  0  0  0  0  0  0  0
    0.3897   -0.8602   -0.5922 C   0  0  0  0  0  0  0  0  0  0  0  0
   -0.9290   -1.2417   -0.4857 C   0  0  0  0  0  0  0  0  0  0  0  0
   -3.7369    3.0860    1.0135 H   0  0  0  0  0  0  0  0  0  0  0  0
    0.1582    2.4069    0.3800 H   0  0  0  0  0  0  0  0  0  0  0  0
    1.7954    0.7608   -0.3598 H   0  0  0  0  0  0  0  0  0  0  0  0
    1.1424   -1.5708   -0.9178 H   0  0  0  0  0  0  0  0  0  0  0  0
   -1.2641   -2.2484   -0.7198 H   0  0  0  0  0  0  0  0  0  0  0  0
   -5.6723    3.0848    0.0987 S   0  0  0  0  0  0  0  0  0  0  0  0
   -4.5303    3.6532    1.0830 O   0  0  0  0  0  0  0  0  0  0  0  0
   -5.5743    1.6419    0.0143 O   0  0  0  0  0  0  0  0  0  0  0  0
   -6.8867    3.7845    0.4614 O   0  0  0  0  0  0  0  0  0  0  0  0
   -5.1771    3.6330   -1.3525 O   0  0  0  0  0  0  0  0  0  0  0  0
   -5.4844    4.5513   -1.4393 H   0  0  0  0  0  0  0  0  0  0  0  0
  1  2  1  0  0  0  0
  1  4  2  0  0  0  0
  2  3  1  0  0  0  0
  5  4  1  0  0  0  0
  5 10  1  0  0  0  0
  6  5  2  0  0  0  0
  7  8  2  0  0  0  0
  7  6  1  0  0  0  0
  8  1  1  0  0  0  0
  9 15  1  0  0  0  0
 11  6  1  0  0  0  0
 12  7  1  0  0  0  0
 13  8  1  0  0  0  0
 14 17  2  0  0  0  0
 14 15  1  0  0  0  0
 16 14  2  0  0  0  0
 18 14  1  0  0  0  0
 19 18  1  0  0  0  0
M  RAD  3   2   2   3   3   4   2
M  END
