Coordinates from ORCA-job PhN2+~HSO4-_B3LYPG-6-31G_dp-CH-Scan-d09-49-n800
 OpenBabel11261919183D

 19 18  0  0  0  0  0  0  0  0999 V2000
   -1.8988   -0.2022   -0.0587 C   0  0  0  0  0  0  0  0  0  0  0  0
   -3.2230   -0.6117    0.0446 N   0  0  0  0  0  0  0  0  0  0  0  0
   -4.2958   -0.9084    0.1411 N   0  0  0  0  0  0  0  0  0  0  0  0
   -1.6862    1.1528    0.2528 C   0  0  0  0  0  0  0  0  0  0  0  0
   -0.3072    1.4686    0.1250 C   0  0  0  0  0  0  0  0  0  0  0  0
    0.6656    0.5484   -0.2551 C   0  0  0  0  0  0  0  0  0  0  0  0
    0.3399   -0.7972   -0.5478 C   0  0  0  0  0  0  0  0  0  0  0  0
   -0.9719   -1.2057   -0.4529 C   0  0  0  0  0  0  0  0  0  0  0  0
   -3.5608    2.8693    0.8763 H   0  0  0  0  0  0  0  0  0  0  0  0
    0.0179    2.4868    0.3359 H   0  0  0  0  0  0  0  0  0  0  0  0
    1.7056    0.8597   -0.3335 H   0  0  0  0  0  0  0  0  0  0  0  0
    1.1129   -1.4990   -0.8431 H   0  0  0  0  0  0  0  0  0  0  0  0
   -1.2799   -2.2251   -0.6671 H   0  0  0  0  0  0  0  0  0  0  0  0
   -5.5559    3.0344    0.1113 S   0  0  0  0  0  0  0  0  0  0  0  0
   -4.3169    3.4820    1.0261 O   0  0  0  0  0  0  0  0  0  0  0  0
   -5.5763    1.5913   -0.0274 O   0  0  0  0  0  0  0  0  0  0  0  0
   -6.6933    3.8032    0.5734 O   0  0  0  0  0  0  0  0  0  0  0  0
   -5.1236    3.5941   -1.3578 O   0  0  0  0  0  0  0  0  0  0  0  0
   -5.3679    4.5343   -1.3941 H   0  0  0  0  0  0  0  0  0  0  0  0
  1  2  1  0  0  0  0
  1  4  2  0  0  0  0
  2  3  1  0  0  0  0
  5  4  1  0  0  0  0
  5 10  1  0  0  0  0
  6  5  2  0  0  0  0
  7  8  2  0  0  0  0
  7  6  1  0  0  0  0
  8  1  1  0  0  0  0
  9 15  1  0  0  0  0
 11  6  1  0  0  0  0
 12  7  1  0  0  0  0
 13  8  1  0  0  0  0
 14 17  2  0  0  0  0
 14 15  1  0  0  0  0
 16 14  2  0  0  0  0
 18 14  1  0  0  0  0
 19 18  1  0  0  0  0
M  RAD  3   2   2   3   3   4   2
M  END
