Coordinates from ORCA-job PhN2+~HSO4-_B3LYPG-6-31G_dp-CH-Scan-d09-49-n800
 OpenBabel11261919183D

 19 18  0  0  0  0  0  0  0  0999 V2000
   -1.7461   -0.2747    0.8380 C   0  0  0  0  0  0  0  0  0  0  0  0
   -2.8579   -0.9307    1.3748 N   0  0  0  0  0  0  0  0  0  0  0  0
   -3.6990   -1.4719    1.8745 N   0  0  0  0  0  0  0  0  0  0  0  0
   -0.6293   -0.3570    1.6808 C   0  0  0  0  0  0  0  0  0  0  0  0
    0.4494    0.3705    1.0885 C   0  0  0  0  0  0  0  0  0  0  0  0
    0.3608    1.0491   -0.1212 C   0  0  0  0  0  0  0  0  0  0  0  0
   -0.8285    1.0352   -0.8983 C   0  0  0  0  0  0  0  0  0  0  0  0
   -1.9297    0.3507   -0.4268 C   0  0  0  0  0  0  0  0  0  0  0  0
   -3.0198    2.8414   -0.5101 H   0  0  0  0  0  0  0  0  0  0  0  0
    1.4053    0.4054    1.6130 H   0  0  0  0  0  0  0  0  0  0  0  0
    1.2214    1.5953   -0.5038 H   0  0  0  0  0  0  0  0  0  0  0  0
   -0.8556    1.5254   -1.8669 H   0  0  0  0  0  0  0  0  0  0  0  0
   -2.8567    0.2661   -0.9865 H   0  0  0  0  0  0  0  0  0  0  0  0
   -5.1485    2.5717   -0.4964 S   0  0  0  0  0  0  0  0  0  0  0  0
   -3.7866    3.4385   -0.6009 O   0  0  0  0  0  0  0  0  0  0  0  0
   -4.9180    1.4173    0.3487 O   0  0  0  0  0  0  0  0  0  0  0  0
   -6.2110    3.5292   -0.2894 O   0  0  0  0  0  0  0  0  0  0  0  0
   -5.2706    1.9703   -2.0049 O   0  0  0  0  0  0  0  0  0  0  0  0
   -5.6952    2.6435   -2.5643 H   0  0  0  0  0  0  0  0  0  0  0  0
  1  2  1  0  0  0  0
  1  4  2  0  0  0  0
  2  3  1  0  0  0  0
  5 10  1  0  0  0  0
  5  4  1  0  0  0  0
  6  5  2  0  0  0  0
  7  8  2  0  0  0  0
  7  6  1  0  0  0  0
  8  1  1  0  0  0  0
 11  6  1  0  0  0  0
 12  7  1  0  0  0  0
 13  8  1  0  0  0  0
 14 17  2  0  0  0  0
 14 16  2  0  0  0  0
 15  9  1  0  0  0  0
 15 14  1  0  0  0  0
 18 14  1  0  0  0  0
 19 18  1  0  0  0  0
M  RAD  3   2   2   3   3   4   2
M  END
