Coordinates from ORCA-job PhN2+~HSO4-_B3LYPG-6-31G_dp-CH-Scan-d09-49-n800
 OpenBabel11261919183D

 19 18  0  0  0  0  0  0  0  0999 V2000
   -1.7777   -0.2402   -0.0519 C   0  0  0  0  0  0  0  0  0  0  0  0
   -3.1183   -0.5966    0.0669 N   0  0  0  0  0  0  0  0  0  0  0  0
   -4.2034   -0.8405    0.1812 N   0  0  0  0  0  0  0  0  0  0  0  0
   -1.5197    1.0948    0.3041 C   0  0  0  0  0  0  0  0  0  0  0  0
   -0.1295    1.3623    0.1577 C   0  0  0  0  0  0  0  0  0  0  0  0
    0.8019    0.4229   -0.2741 C   0  0  0  0  0  0  0  0  0  0  0  0
    0.4233   -0.9009   -0.6067 C   0  0  0  0  0  0  0  0  0  0  0  0
   -0.9000   -1.2657   -0.4996 C   0  0  0  0  0  0  0  0  0  0  0  0
   -3.8342    3.2040    1.0666 H   0  0  0  0  0  0  0  0  0  0  0  0
    0.2393    2.3602    0.3964 H   0  0  0  0  0  0  0  0  0  0  0  0
    1.8512    0.6993   -0.3638 H   0  0  0  0  0  0  0  0  0  0  0  0
    1.1657   -1.6182   -0.9410 H   0  0  0  0  0  0  0  0  0  0  0  0
   -1.2496   -2.2656   -0.7416 H   0  0  0  0  0  0  0  0  0  0  0  0
   -5.7411    3.1176    0.0964 S   0  0  0  0  0  0  0  0  0  0  0  0
   -4.6448    3.7459    1.1011 O   0  0  0  0  0  0  0  0  0  0  0  0
   -5.5775    1.6802    0.0346 O   0  0  0  0  0  0  0  0  0  0  0  0
   -6.9905    3.7707    0.4242 O   0  0  0  0  0  0  0  0  0  0  0  0
   -5.2341    3.6707   -1.3479 O   0  0  0  0  0  0  0  0  0  0  0  0
   -5.5767    4.5745   -1.4538 H   0  0  0  0  0  0  0  0  0  0  0  0
  1  2  1  0  0  0  0
  1  4  2  0  0  0  0
  2  3  1  0  0  0  0
  5  4  1  0  0  0  0
  5 10  1  0  0  0  0
  6  5  2  0  0  0  0
  7  8  2  0  0  0  0
  7  6  1  0  0  0  0
  8  1  1  0  0  0  0
  9 15  1  0  0  0  0
 11  6  1  0  0  0  0
 12  7  1  0  0  0  0
 13  8  1  0  0  0  0
 14 17  2  0  0  0  0
 14 15  1  0  0  0  0
 16 14  2  0  0  0  0
 18 14  1  0  0  0  0
 19 18  1  0  0  0  0
M  RAD  3   2   2   3   3   4   2
M  END
