Coordinates from ORCA-job PhN2+~HSO4-_B3LYPG-6-31G_dp-CH-Scan-d09-49-n800
 OpenBabel11261919183D

 19 18  0  0  0  0  0  0  0  0999 V2000
   -2.0628   -0.0474   -0.2944 C   0  0  0  0  0  0  0  0  0  0  0  0
   -3.3859   -0.4304   -0.4573 N   0  0  0  0  0  0  0  0  0  0  0  0
   -4.4584   -0.7104   -0.5824 N   0  0  0  0  0  0  0  0  0  0  0  0
   -1.8427    1.3138   -0.0118 C   0  0  0  0  0  0  0  0  0  0  0  0
   -0.4646    1.5910    0.1330 C   0  0  0  0  0  0  0  0  0  0  0  0
    0.5295    0.6232    0.0075 C   0  0  0  0  0  0  0  0  0  0  0  0
    0.2146   -0.7219   -0.2805 C   0  0  0  0  0  0  0  0  0  0  0  0
   -1.1058   -1.0852   -0.4393 C   0  0  0  0  0  0  0  0  0  0  0  0
   -2.9963    2.5265    0.1904 H   0  0  0  0  0  0  0  0  0  0  0  0
   -0.1624    2.6119    0.3572 H   0  0  0  0  0  0  0  0  0  0  0  0
    1.5735    0.9011    0.1332 H   0  0  0  0  0  0  0  0  0  0  0  0
    1.0001   -1.4639   -0.3766 H   0  0  0  0  0  0  0  0  0  0  0  0
   -1.4023   -2.1055   -0.6626 H   0  0  0  0  0  0  0  0  0  0  0  0
   -5.1623    2.9687    0.3571 S   0  0  0  0  0  0  0  0  0  0  0  0
   -3.6533    3.3734    0.3606 O   0  0  0  0  0  0  0  0  0  0  0  0
   -5.3086    1.5462    0.6502 O   0  0  0  0  0  0  0  0  0  0  0  0
   -5.9294    3.9726    1.0762 O   0  0  0  0  0  0  0  0  0  0  0  0
   -5.5742    3.0928   -1.2306 O   0  0  0  0  0  0  0  0  0  0  0  0
   -5.8242    4.0188   -1.3814 H   0  0  0  0  0  0  0  0  0  0  0  0
  1  4  1  0  0  0  0
  2  1  1  0  0  0  0
  3  2  1  0  0  0  0
  4  5  2  0  0  0  0
  5 10  1  0  0  0  0
  6  5  1  0  0  0  0
  6 11  1  0  0  0  0
  7  6  2  0  0  0  0
  8  1  2  0  0  0  0
  8  7  1  0  0  0  0
  9 15  1  0  0  0  0
 12  7  1  0  0  0  0
 13  8  1  0  0  0  0
 14 15  1  0  0  0  0
 14 16  2  0  0  0  0
 14 17  2  0  0  0  0
 18 14  1  0  0  0  0
 19 18  1  0  0  0  0
M  RAD  3   2   2   3   3   4   2
M  END
