Coordinates from ORCA-job PhN2+~HSO4-_B3LYPG-6-31G_dp-CH-Scan-d09-49-n800
 OpenBabel11261919183D

 19 18  0  0  0  0  0  0  0  0999 V2000
   -1.5830   -0.2844    0.0168 C   0  0  0  0  0  0  0  0  0  0  0  0
   -2.9409   -0.5466    0.2035 N   0  0  0  0  0  0  0  0  0  0  0  0
   -4.0341   -0.7001    0.3860 N   0  0  0  0  0  0  0  0  0  0  0  0
   -1.2137    0.9886    0.4774 C   0  0  0  0  0  0  0  0  0  0  0  0
    0.1827    1.1737    0.2572 C   0  0  0  0  0  0  0  0  0  0  0  0
    1.0123    0.2215   -0.3263 C   0  0  0  0  0  0  0  0  0  0  0  0
    0.5173   -1.0367   -0.7526 C   0  0  0  0  0  0  0  0  0  0  0  0
   -0.8192   -1.3216   -0.5857 C   0  0  0  0  0  0  0  0  0  0  0  0
   -4.3565    3.7049    1.3227 H   0  0  0  0  0  0  0  0  0  0  0  0
    0.6399    2.1169    0.5603 H   0  0  0  0  0  0  0  0  0  0  0  0
    2.0712    0.4345   -0.4664 H   0  0  0  0  0  0  0  0  0  0  0  0
    1.1833   -1.7658   -1.2028 H   0  0  0  0  0  0  0  0  0  0  0  0
   -1.2565   -2.2684   -0.8916 H   0  0  0  0  0  0  0  0  0  0  0  0
   -6.0036    3.2250    0.0411 S   0  0  0  0  0  0  0  0  0  0  0  0
   -5.2309    4.1017    1.1651 O   0  0  0  0  0  0  0  0  0  0  0  0
   -5.5456    1.8542    0.1116 O   0  0  0  0  0  0  0  0  0  0  0  0
   -7.3917    3.6232    0.1263 O   0  0  0  0  0  0  0  0  0  0  0  0
   -5.3772    3.8231   -1.3349 O   0  0  0  0  0  0  0  0  0  0  0  0
   -5.8695    4.6315   -1.5590 H   0  0  0  0  0  0  0  0  0  0  0  0
  1  2  1  0  0  0  0
  1  4  2  0  0  0  0
  2  3  1  0  0  0  0
  5  4  1  0  0  0  0
  5 10  1  0  0  0  0
  6  5  2  0  0  0  0
  7  8  2  0  0  0  0
  7  6  1  0  0  0  0
  8  1  1  0  0  0  0
 11  6  1  0  0  0  0
 12  7  1  0  0  0  0
 13  8  1  0  0  0  0
 14 16  2  0  0  0  0
 14 17  2  0  0  0  0
 14 15  1  0  0  0  0
 15  9  1  0  0  0  0
 18 14  1  0  0  0  0
 19 18  1  0  0  0  0
M  RAD  3   2   2   3   3   4   2
M  END
