Coordinates from ORCA-job PhN2+~HSO4-_B3LYPG-6-31G_dp-CH-Scan-d09-49-n800
 OpenBabel11261919183D

 19 18  0  0  0  0  0  0  0  0999 V2000
   -1.8262   -0.2242   -0.0522 C   0  0  0  0  0  0  0  0  0  0  0  0
   -3.1604   -0.6020    0.0620 N   0  0  0  0  0  0  0  0  0  0  0  0
   -4.2396   -0.8679    0.1796 N   0  0  0  0  0  0  0  0  0  0  0  0
   -1.5849    1.1175    0.2915 C   0  0  0  0  0  0  0  0  0  0  0  0
   -0.1991    1.4041    0.1493 C   0  0  0  0  0  0  0  0  0  0  0  0
    0.7473    0.4734   -0.2691 C   0  0  0  0  0  0  0  0  0  0  0  0
    0.3882   -0.8581   -0.5905 C   0  0  0  0  0  0  0  0  0  0  0  0
   -0.9305   -1.2402   -0.4858 C   0  0  0  0  0  0  0  0  0  0  0  0
   -3.7295    3.0784    1.0068 H   0  0  0  0  0  0  0  0  0  0  0  0
    0.1537    2.4093    0.3800 H   0  0  0  0  0  0  0  0  0  0  0  0
    1.7929    0.7636   -0.3564 H   0  0  0  0  0  0  0  0  0  0  0  0
    1.1416   -1.5684   -0.9148 H   0  0  0  0  0  0  0  0  0  0  0  0
   -1.2648   -2.2470   -0.7203 H   0  0  0  0  0  0  0  0  0  0  0  0
   -5.6686    3.0832    0.0997 S   0  0  0  0  0  0  0  0  0  0  0  0
   -4.5212    3.6477    1.0796 O   0  0  0  0  0  0  0  0  0  0  0  0
   -5.5756    1.6400    0.0144 O   0  0  0  0  0  0  0  0  0  0  0  0
   -6.8795    3.7864    0.4672 O   0  0  0  0  0  0  0  0  0  0  0  0
   -5.1774    3.6301   -1.3534 O   0  0  0  0  0  0  0  0  0  0  0  0
   -5.4821    4.5494   -1.4388 H   0  0  0  0  0  0  0  0  0  0  0  0
  1  2  1  0  0  0  0
  1  4  2  0  0  0  0
  2  3  1  0  0  0  0
  5  4  1  0  0  0  0
  5 10  1  0  0  0  0
  6  5  2  0  0  0  0
  7  8  2  0  0  0  0
  7  6  1  0  0  0  0
  8  1  1  0  0  0  0
  9 15  1  0  0  0  0
 11  6  1  0  0  0  0
 12  7  1  0  0  0  0
 13  8  1  0  0  0  0
 14 17  2  0  0  0  0
 14 15  1  0  0  0  0
 16 14  2  0  0  0  0
 18 14  1  0  0  0  0
 19 18  1  0  0  0  0
M  RAD  3   2   2   3   3   4   2
M  END
