Coordinates from ORCA-job PhN2+~HSO4-_B3LYPG-6-31G_dp-CH-Scan-d09-49-n800
 OpenBabel11261919183D

 19 18  0  0  0  0  0  0  0  0999 V2000
   -1.9801   -0.1781   -0.0591 C   0  0  0  0  0  0  0  0  0  0  0  0
   -3.2918   -0.6236    0.0368 N   0  0  0  0  0  0  0  0  0  0  0  0
   -4.3551   -0.9532    0.1235 N   0  0  0  0  0  0  0  0  0  0  0  0
   -1.7966    1.1870    0.2291 C   0  0  0  0  0  0  0  0  0  0  0  0
   -0.4268    1.5353    0.1103 C   0  0  0  0  0  0  0  0  0  0  0  0
    0.5718    0.6319   -0.2433 C   0  0  0  0  0  0  0  0  0  0  0  0
    0.2804   -0.7247   -0.5151 C   0  0  0  0  0  0  0  0  0  0  0  0
   -1.0228   -1.1623   -0.4258 C   0  0  0  0  0  0  0  0  0  0  0  0
   -3.3921    2.6485    0.7551 H   0  0  0  0  0  0  0  0  0  0  0  0
   -0.1311    2.5647    0.3068 H   0  0  0  0  0  0  0  0  0  0  0  0
    1.6045    0.9668   -0.3159 H   0  0  0  0  0  0  0  0  0  0  0  0
    1.0718   -1.4138   -0.7905 H   0  0  0  0  0  0  0  0  0  0  0  0
   -1.3041   -2.1922   -0.6254 H   0  0  0  0  0  0  0  0  0  0  0  0
   -5.4206    2.9793    0.1208 S   0  0  0  0  0  0  0  0  0  0  0  0
   -4.1105    3.3130    0.9629 O   0  0  0  0  0  0  0  0  0  0  0  0
   -5.5537    1.5439   -0.0557 O   0  0  0  0  0  0  0  0  0  0  0  0
   -6.4838    3.8042    0.6601 O   0  0  0  0  0  0  0  0  0  0  0  0
   -5.0445    3.5474   -1.3641 O   0  0  0  0  0  0  0  0  0  0  0  0
   -5.2305    4.5013   -1.3618 H   0  0  0  0  0  0  0  0  0  0  0  0
  1  2  1  0  0  0  0
  1  4  2  0  0  0  0
  2  3  1  0  0  0  0
  5  4  1  0  0  0  0
  5 10  1  0  0  0  0
  6  5  2  0  0  0  0
  7  8  2  0  0  0  0
  7  6  1  0  0  0  0
  8  1  1  0  0  0  0
  9 15  1  0  0  0  0
 11  6  1  0  0  0  0
 12  7  1  0  0  0  0
 13  8  1  0  0  0  0
 14 17  2  0  0  0  0
 14 15  1  0  0  0  0
 16 14  2  0  0  0  0
 18 19  1  0  0  0  0
 18 14  1  0  0  0  0
M  RAD  3   2   2   3   3   4   2
M  END
