Coordinates from ORCA-job PhN2+~HSO4-_B3LYPG-6-31G_dp-CH-Scan-d09-49-n800
 OpenBabel11261919183D

 19 18  0  0  0  0  0  0  0  0999 V2000
   -1.7954   -0.2347   -0.0507 C   0  0  0  0  0  0  0  0  0  0  0  0
   -3.1336   -0.5992    0.0680 N   0  0  0  0  0  0  0  0  0  0  0  0
   -4.2165   -0.8520    0.1822 N   0  0  0  0  0  0  0  0  0  0  0  0
   -1.5434    1.1026    0.3011 C   0  0  0  0  0  0  0  0  0  0  0  0
   -0.1549    1.3775    0.1549 C   0  0  0  0  0  0  0  0  0  0  0  0
    0.7816    0.4416   -0.2736 C   0  0  0  0  0  0  0  0  0  0  0  0
    0.4100   -0.8850   -0.6023 C   0  0  0  0  0  0  0  0  0  0  0  0
   -0.9115   -1.2564   -0.4947 C   0  0  0  0  0  0  0  0  0  0  0  0
   -3.7981    3.1603    1.0491 H   0  0  0  0  0  0  0  0  0  0  0  0
    0.2081    2.3781    0.3909 H   0  0  0  0  0  0  0  0  0  0  0  0
    1.8294    0.7233   -0.3635 H   0  0  0  0  0  0  0  0  0  0  0  0
    1.1562   -1.5994   -0.9341 H   0  0  0  0  0  0  0  0  0  0  0  0
   -1.2555   -2.2589   -0.7340 H   0  0  0  0  0  0  0  0  0  0  0  0
   -5.7144    3.1048    0.0966 S   0  0  0  0  0  0  0  0  0  0  0  0
   -4.6024    3.7116    1.0955 O   0  0  0  0  0  0  0  0  0  0  0  0
   -5.5748    1.6649    0.0265 O   0  0  0  0  0  0  0  0  0  0  0  0
   -6.9516    3.7754    0.4356 O   0  0  0  0  0  0  0  0  0  0  0  0
   -5.2097    3.6558   -1.3497 O   0  0  0  0  0  0  0  0  0  0  0  0
   -5.5393    4.5651   -1.4491 H   0  0  0  0  0  0  0  0  0  0  0  0
  1  2  1  0  0  0  0
  1  4  2  0  0  0  0
  2  3  1  0  0  0  0
  5  4  1  0  0  0  0
  5 10  1  0  0  0  0
  6  5  2  0  0  0  0
  7  8  2  0  0  0  0
  7  6  1  0  0  0  0
  8  1  1  0  0  0  0
  9 15  1  0  0  0  0
 11  6  1  0  0  0  0
 12  7  1  0  0  0  0
 13  8  1  0  0  0  0
 14 17  2  0  0  0  0
 14 15  1  0  0  0  0
 16 14  2  0  0  0  0
 18 14  1  0  0  0  0
 19 18  1  0  0  0  0
M  RAD  3   2   2   3   3   4   2
M  END
