Coordinates from ORCA-job PhN2+~HSO4-_B3LYPG-6-31G_dp-CH-Scan-d09-49-n800
 OpenBabel11261919183D

 19 18  0  0  0  0  0  0  0  0999 V2000
   -1.8701   -0.2109   -0.0566 C   0  0  0  0  0  0  0  0  0  0  0  0
   -3.1983   -0.6078    0.0507 N   0  0  0  0  0  0  0  0  0  0  0  0
   -4.2742   -0.8922    0.1517 N   0  0  0  0  0  0  0  0  0  0  0  0
   -1.6465    1.1393    0.2672 C   0  0  0  0  0  0  0  0  0  0  0  0
   -0.2647    1.4435    0.1342 C   0  0  0  0  0  0  0  0  0  0  0  0
    0.6980    0.5190   -0.2602 C   0  0  0  0  0  0  0  0  0  0  0  0
    0.3595   -0.8215   -0.5638 C   0  0  0  0  0  0  0  0  0  0  0  0
   -0.9552   -1.2196   -0.4655 C   0  0  0  0  0  0  0  0  0  0  0  0
   -3.6250    2.9506    0.9271 H   0  0  0  0  0  0  0  0  0  0  0  0
    0.0713    2.4569    0.3528 H   0  0  0  0  0  0  0  0  0  0  0  0
    1.7403    0.8219   -0.3416 H   0  0  0  0  0  0  0  0  0  0  0  0
    1.1250   -1.5268   -0.8700 H   0  0  0  0  0  0  0  0  0  0  0  0
   -1.2734   -2.2343   -0.6875 H   0  0  0  0  0  0  0  0  0  0  0  0
   -5.6013    3.0541    0.1076 S   0  0  0  0  0  0  0  0  0  0  0  0
   -4.3948    3.5474    1.0474 O   0  0  0  0  0  0  0  0  0  0  0  0
   -5.5790    1.6097   -0.0095 O   0  0  0  0  0  0  0  0  0  0  0  0
   -6.7670    3.8004    0.5337 O   0  0  0  0  0  0  0  0  0  0  0  0
   -5.1465    3.6062   -1.3565 O   0  0  0  0  0  0  0  0  0  0  0  0
   -5.4138    4.5393   -1.4123 H   0  0  0  0  0  0  0  0  0  0  0  0
  1  2  1  0  0  0  0
  1  4  2  0  0  0  0
  2  3  1  0  0  0  0
  5  4  1  0  0  0  0
  5 10  1  0  0  0  0
  6  5  2  0  0  0  0
  7  8  2  0  0  0  0
  7  6  1  0  0  0  0
  8  1  1  0  0  0  0
  9 15  1  0  0  0  0
 11  6  1  0  0  0  0
 12  7  1  0  0  0  0
 13  8  1  0  0  0  0
 14 17  2  0  0  0  0
 14 15  1  0  0  0  0
 16 14  2  0  0  0  0
 18 14  1  0  0  0  0
 19 18  1  0  0  0  0
M  RAD  3   2   2   3   3   4   2
M  END
