Coordinates from ORCA-job PhN2+~HSO4-_B3LYPG-6-31G_dp-CH-Scan-d09-49-n800
 OpenBabel11261919183D

 19 18  0  0  0  0  0  0  0  0999 V2000
   -2.0513   -0.1618    0.0065 C   0  0  0  0  0  0  0  0  0  0  0  0
   -3.3455   -0.6385    0.1575 N   0  0  0  0  0  0  0  0  0  0  0  0
   -4.3954   -0.9926    0.2892 N   0  0  0  0  0  0  0  0  0  0  0  0
   -1.8840    1.2144    0.2509 C   0  0  0  0  0  0  0  0  0  0  0  0
   -0.5312    1.5943    0.0796 C   0  0  0  0  0  0  0  0  0  0  0  0
    0.4774    0.7046   -0.2824 C   0  0  0  0  0  0  0  0  0  0  0  0
    0.2091   -0.6639   -0.5076 C   0  0  0  0  0  0  0  0  0  0  0  0
   -1.0803   -1.1291   -0.3640 C   0  0  0  0  0  0  0  0  0  0  0  0
   -3.2562    2.4161    0.6902 H   0  0  0  0  0  0  0  0  0  0  0  0
   -0.2592    2.6360    0.2391 H   0  0  0  0  0  0  0  0  0  0  0  0
    1.4983    1.0617   -0.3978 H   0  0  0  0  0  0  0  0  0  0  0  0
    1.0069   -1.3426   -0.7901 H   0  0  0  0  0  0  0  0  0  0  0  0
   -1.3424   -2.1702   -0.5270 H   0  0  0  0  0  0  0  0  0  0  0  0
   -5.2748    2.8976    0.0315 S   0  0  0  0  0  0  0  0  0  0  0  0
   -3.9988    3.0972    0.9369 O   0  0  0  0  0  0  0  0  0  0  0  0
   -5.3864    1.5066   -0.3840 O   0  0  0  0  0  0  0  0  0  0  0  0
   -6.3791    3.6051    0.6552 O   0  0  0  0  0  0  0  0  0  0  0  0
   -4.8853    3.7065   -1.3384 O   0  0  0  0  0  0  0  0  0  0  0  0
   -5.1373    4.6339   -1.1966 H   0  0  0  0  0  0  0  0  0  0  0  0
  1  2  1  0  0  0  0
  1  4  2  0  0  0  0
  2  3  1  0  0  0  0
  5 10  1  0  0  0  0
  5  4  1  0  0  0  0
  6  5  2  0  0  0  0
  7  8  2  0  0  0  0
  7  6  1  0  0  0  0
  8  1  1  0  0  0  0
  9 15  1  0  0  0  0
 11  6  1  0  0  0  0
 12  7  1  0  0  0  0
 13  8  1  0  0  0  0
 14 17  2  0  0  0  0
 14 15  1  0  0  0  0
 16 14  2  0  0  0  0
 18 19  1  0  0  0  0
 18 14  1  0  0  0  0
M  RAD  3   2   2   3   3   4   2
M  END
