Coordinates from ORCA-job PhN2+~HSO4-_B3LYPG-6-31G_dp-CH-Scan-d09-49-n800
 OpenBabel11261919183D

 19 18  0  0  0  0  0  0  0  0999 V2000
   -1.8507   -0.2169   -0.0538 C   0  0  0  0  0  0  0  0  0  0  0  0
   -3.1814   -0.6056    0.0576 N   0  0  0  0  0  0  0  0  0  0  0  0
   -4.2592   -0.8821    0.1624 N   0  0  0  0  0  0  0  0  0  0  0  0
   -1.6193    1.1295    0.2793 C   0  0  0  0  0  0  0  0  0  0  0  0
   -0.2358    1.4261    0.1413 C   0  0  0  0  0  0  0  0  0  0  0  0
    0.7195    0.4991   -0.2650 C   0  0  0  0  0  0  0  0  0  0  0  0
    0.3719   -0.8373   -0.5770 C   0  0  0  0  0  0  0  0  0  0  0  0
   -0.9445   -1.2286   -0.4750 C   0  0  0  0  0  0  0  0  0  0  0  0
   -3.6722    3.0097    0.9667 H   0  0  0  0  0  0  0  0  0  0  0  0
    0.1078    2.4358    0.3657 H   0  0  0  0  0  0  0  0  0  0  0  0
    1.7632    0.7966   -0.3498 H   0  0  0  0  0  0  0  0  0  0  0  0
    1.1319   -1.5447   -0.8921 H   0  0  0  0  0  0  0  0  0  0  0  0
   -1.2698   -2.2398   -0.7027 H   0  0  0  0  0  0  0  0  0  0  0  0
   -5.6314    3.0670    0.1042 S   0  0  0  0  0  0  0  0  0  0  0  0
   -4.4527    3.5938    1.0642 O   0  0  0  0  0  0  0  0  0  0  0  0
   -5.5775    1.6225    0.0038 O   0  0  0  0  0  0  0  0  0  0  0  0
   -6.8184    3.7956    0.5002 O   0  0  0  0  0  0  0  0  0  0  0  0
   -5.1566    3.6139   -1.3550 O   0  0  0  0  0  0  0  0  0  0  0  0
   -5.4405    4.5410   -1.4262 H   0  0  0  0  0  0  0  0  0  0  0  0
  1  2  1  0  0  0  0
  1  4  2  0  0  0  0
  2  3  1  0  0  0  0
  5  4  1  0  0  0  0
  5 10  1  0  0  0  0
  6  5  2  0  0  0  0
  7  8  2  0  0  0  0
  7  6  1  0  0  0  0
  8  1  1  0  0  0  0
  9 15  1  0  0  0  0
 11  6  1  0  0  0  0
 12  7  1  0  0  0  0
 13  8  1  0  0  0  0
 14 17  2  0  0  0  0
 14 15  1  0  0  0  0
 16 14  2  0  0  0  0
 18 14  1  0  0  0  0
 19 18  1  0  0  0  0
M  RAD  3   2   2   3   3   4   2
M  END
