Coordinates from ORCA-job PhN2+~HSO4-_B3LYPG-6-31G_dp-CH-Scan-d09-49-n800
 OpenBabel11261919183D

 19 18  0  0  0  0  0  0  0  0999 V2000
   -1.6334   -0.2769   -0.0190 C   0  0  0  0  0  0  0  0  0  0  0  0
   -2.9895   -0.5635    0.1366 N   0  0  0  0  0  0  0  0  0  0  0  0
   -4.0838   -0.7398    0.2883 N   0  0  0  0  0  0  0  0  0  0  0  0
   -1.3018    1.0202    0.4032 C   0  0  0  0  0  0  0  0  0  0  0  0
    0.0962    1.2258    0.2167 C   0  0  0  0  0  0  0  0  0  0  0  0
    0.9618    0.2698   -0.3051 C   0  0  0  0  0  0  0  0  0  0  0  0
    0.5047   -1.0134   -0.6975 C   0  0  0  0  0  0  0  0  0  0  0  0
   -0.8305   -1.3192   -0.5590 C   0  0  0  0  0  0  0  0  0  0  0  0
   -4.2067    3.6008    1.2597 H   0  0  0  0  0  0  0  0  0  0  0  0
    0.5255    2.1890    0.4968 H   0  0  0  0  0  0  0  0  0  0  0  0
    2.0200    0.4994   -0.4216 H   0  0  0  0  0  0  0  0  0  0  0  0
    1.1978   -1.7448   -1.1002 H   0  0  0  0  0  0  0  0  0  0  0  0
   -1.2398   -2.2853   -0.8421 H   0  0  0  0  0  0  0  0  0  0  0  0
   -5.9402    3.2028    0.0669 S   0  0  0  0  0  0  0  0  0  0  0  0
   -5.0743    4.0298    1.1584 O   0  0  0  0  0  0  0  0  0  0  0  0
   -5.5462    1.8107    0.1004 O   0  0  0  0  0  0  0  0  0  0  0  0
   -7.3024    3.6637    0.2244 O   0  0  0  0  0  0  0  0  0  0  0  0
   -5.3552    3.7862   -1.3338 O   0  0  0  0  0  0  0  0  0  0  0  0
   -5.8177    4.6202   -1.5242 H   0  0  0  0  0  0  0  0  0  0  0  0
  1  2  1  0  0  0  0
  1  4  2  0  0  0  0
  2  3  1  0  0  0  0
  5  4  1  0  0  0  0
  5 10  1  0  0  0  0
  6  5  2  0  0  0  0
  7  8  2  0  0  0  0
  7  6  1  0  0  0  0
  8  1  1  0  0  0  0
 11  6  1  0  0  0  0
 12  7  1  0  0  0  0
 13  8  1  0  0  0  0
 14 16  2  0  0  0  0
 14 17  2  0  0  0  0
 14 15  1  0  0  0  0
 15  9  1  0  0  0  0
 18 14  1  0  0  0  0
 19 18  1  0  0  0  0
M  RAD  3   2   2   3   3   4   2
M  END
