Coordinates from ORCA-job PhN2+~HSO4-_B3LYPG-6-31G_dp-CH-Scan-d09-49-n800
 OpenBabel11261919183D

 19 18  0  0  0  0  0  0  0  0999 V2000
   -1.5686   -0.2856    0.0304 C   0  0  0  0  0  0  0  0  0  0  0  0
   -2.9265   -0.5403    0.2279 N   0  0  0  0  0  0  0  0  0  0  0  0
   -4.0189   -0.6869    0.4207 N   0  0  0  0  0  0  0  0  0  0  0  0
   -1.1860    0.9777    0.5062 C   0  0  0  0  0  0  0  0  0  0  0  0
    0.2093    1.1567    0.2742 C   0  0  0  0  0  0  0  0  0  0  0  0
    1.0261    0.2080   -0.3326 C   0  0  0  0  0  0  0  0  0  0  0  0
    0.5180   -1.0403   -0.7725 C   0  0  0  0  0  0  0  0  0  0  0  0
   -0.8186   -1.3188   -0.5957 C   0  0  0  0  0  0  0  0  0  0  0  0
   -4.3987    3.7348    1.3366 H   0  0  0  0  0  0  0  0  0  0  0  0
    0.6761    2.0922    0.5866 H   0  0  0  0  0  0  0  0  0  0  0  0
    2.0848    0.4159   -0.4807 H   0  0  0  0  0  0  0  0  0  0  0  0
    1.1743   -1.7670   -1.2406 H   0  0  0  0  0  0  0  0  0  0  0  0
   -1.2656   -2.2580   -0.9110 H   0  0  0  0  0  0  0  0  0  0  0  0
   -6.0204    3.2297    0.0327 S   0  0  0  0  0  0  0  0  0  0  0  0
   -5.2743    4.1220    1.1627 O   0  0  0  0  0  0  0  0  0  0  0  0
   -5.5446    1.8657    0.1164 O   0  0  0  0  0  0  0  0  0  0  0  0
   -7.4147    3.6095    0.0973 O   0  0  0  0  0  0  0  0  0  0  0  0
   -5.3836    3.8298   -1.3375 O   0  0  0  0  0  0  0  0  0  0  0  0
   -5.8836    4.6303   -1.5724 H   0  0  0  0  0  0  0  0  0  0  0  0
  1  2  1  0  0  0  0
  1  4  2  0  0  0  0
  2  3  1  0  0  0  0
  5  4  1  0  0  0  0
  5 10  1  0  0  0  0
  6  5  2  0  0  0  0
  7  8  2  0  0  0  0
  7  6  1  0  0  0  0
  8  1  1  0  0  0  0
 11  6  1  0  0  0  0
 12  7  1  0  0  0  0
 13  8  1  0  0  0  0
 14 17  2  0  0  0  0
 14 16  2  0  0  0  0
 14 15  1  0  0  0  0
 15  9  1  0  0  0  0
 18 14  1  0  0  0  0
 19 18  1  0  0  0  0
M  RAD  3   2   2   3   3   4   2
M  END
