Coordinates from ORCA-job PhN2+~HSO4-_B3LYPG-6-31G_dp-CH-Scan-d09-49-n800
 OpenBabel11261919183D

 19 18  0  0  0  0  0  0  0  0999 V2000
   -2.0337   -0.1674   -0.0096 C   0  0  0  0  0  0  0  0  0  0  0  0
   -3.3316   -0.6385    0.1287 N   0  0  0  0  0  0  0  0  0  0  0  0
   -4.3846   -0.9878    0.2501 N   0  0  0  0  0  0  0  0  0  0  0  0
   -1.8648    1.2070    0.2434 C   0  0  0  0  0  0  0  0  0  0  0  0
   -0.5078    1.5805    0.0846 C   0  0  0  0  0  0  0  0  0  0  0  0
    0.4998    0.6884   -0.2736 C   0  0  0  0  0  0  0  0  0  0  0  0
    0.2277   -0.6782   -0.5082 C   0  0  0  0  0  0  0  0  0  0  0  0
   -1.0646   -1.1382   -0.3775 C   0  0  0  0  0  0  0  0  0  0  0  0
   -3.2930    2.4699    0.7040 H   0  0  0  0  0  0  0  0  0  0  0  0
   -0.2309    2.6200    0.2516 H   0  0  0  0  0  0  0  0  0  0  0  0
    1.5233    1.0415   -0.3788 H   0  0  0  0  0  0  0  0  0  0  0  0
    1.0250   -1.3587   -0.7878 H   0  0  0  0  0  0  0  0  0  0  0  0
   -1.3302   -2.1773   -0.5479 H   0  0  0  0  0  0  0  0  0  0  0  0
   -5.3123    2.9178    0.0529 S   0  0  0  0  0  0  0  0  0  0  0  0
   -4.0259    3.1439    0.9452 O   0  0  0  0  0  0  0  0  0  0  0  0
   -5.4360    1.5139   -0.3082 O   0  0  0  0  0  0  0  0  0  0  0  0
   -6.4016    3.6588    0.6619 O   0  0  0  0  0  0  0  0  0  0  0  0
   -4.9234    3.6710   -1.3470 O   0  0  0  0  0  0  0  0  0  0  0  0
   -5.1507    4.6090   -1.2348 H   0  0  0  0  0  0  0  0  0  0  0  0
  1  2  1  0  0  0  0
  1  4  2  0  0  0  0
  2  3  1  0  0  0  0
  5  4  1  0  0  0  0
  5 10  1  0  0  0  0
  6  5  2  0  0  0  0
  7  8  2  0  0  0  0
  7  6  1  0  0  0  0
  8  1  1  0  0  0  0
  9 15  1  0  0  0  0
 11  6  1  0  0  0  0
 12  7  1  0  0  0  0
 13  8  1  0  0  0  0
 14 17  2  0  0  0  0
 14 15  1  0  0  0  0
 16 14  2  0  0  0  0
 18 19  1  0  0  0  0
 18 14  1  0  0  0  0
M  RAD  3   2   2   3   3   4   2
M  END
