Coordinates from ORCA-job PhN2+~HSO4-_B3LYPG-6-31G_dp-CH-Scan-d09-49-n800
 OpenBabel11261919183D

 19 18  0  0  0  0  0  0  0  0999 V2000
   -1.8134   -0.2291   -0.0498 C   0  0  0  0  0  0  0  0  0  0  0  0
   -3.1489   -0.6019    0.0682 N   0  0  0  0  0  0  0  0  0  0  0  0
   -4.2301   -0.8627    0.1804 N   0  0  0  0  0  0  0  0  0  0  0  0
   -1.5678    1.1109    0.2972 C   0  0  0  0  0  0  0  0  0  0  0  0
   -0.1811    1.3931    0.1517 C   0  0  0  0  0  0  0  0  0  0  0  0
    0.7609    0.4607   -0.2724 C   0  0  0  0  0  0  0  0  0  0  0  0
    0.3968   -0.8688   -0.5968 C   0  0  0  0  0  0  0  0  0  0  0  0
   -0.9228   -1.2470   -0.4892 C   0  0  0  0  0  0  0  0  0  0  0  0
   -3.7596    3.1137    1.0283 H   0  0  0  0  0  0  0  0  0  0  0  0
    0.1759    2.3964    0.3845 H   0  0  0  0  0  0  0  0  0  0  0  0
    1.8072    0.7478   -0.3622 H   0  0  0  0  0  0  0  0  0  0  0  0
    1.1470   -1.5805   -0.9253 H   0  0  0  0  0  0  0  0  0  0  0  0
   -1.2611   -2.2521   -0.7254 H   0  0  0  0  0  0  0  0  0  0  0  0
   -5.6874    3.0920    0.0974 S   0  0  0  0  0  0  0  0  0  0  0  0
   -4.5574    3.6749    1.0883 O   0  0  0  0  0  0  0  0  0  0  0  0
   -5.5736    1.6501    0.0189 O   0  0  0  0  0  0  0  0  0  0  0  0
   -6.9108    3.7810    0.4499 O   0  0  0  0  0  0  0  0  0  0  0  0
   -5.1870    3.6409   -1.3515 O   0  0  0  0  0  0  0  0  0  0  0  0
   -5.5025    4.5560   -1.4435 H   0  0  0  0  0  0  0  0  0  0  0  0
  1  2  1  0  0  0  0
  1  4  2  0  0  0  0
  2  3  1  0  0  0  0
  5  4  1  0  0  0  0
  5 10  1  0  0  0  0
  6  5  2  0  0  0  0
  7  8  2  0  0  0  0
  7  6  1  0  0  0  0
  8  1  1  0  0  0  0
  9 15  1  0  0  0  0
 11  6  1  0  0  0  0
 12  7  1  0  0  0  0
 13  8  1  0  0  0  0
 14 17  2  0  0  0  0
 14 15  1  0  0  0  0
 16 14  2  0  0  0  0
 18 14  1  0  0  0  0
 19 18  1  0  0  0  0
M  RAD  3   2   2   3   3   4   2
M  END
