Coordinates from ORCA-job PhN2+~HSO4-_B3LYPG-6-31G_dp-CH-Scan-d09-49-n800
 OpenBabel11261919183D

 19 18  0  0  0  0  0  0  0  0999 V2000
   -1.7243   -0.2610    0.8467 C   0  0  0  0  0  0  0  0  0  0  0  0
   -2.8504   -0.8899    1.3859 N   0  0  0  0  0  0  0  0  0  0  0  0
   -3.7028   -1.4122    1.8868 N   0  0  0  0  0  0  0  0  0  0  0  0
   -0.6051   -0.3820    1.6818 C   0  0  0  0  0  0  0  0  0  0  0  0
    0.4918    0.3137    1.0856 C   0  0  0  0  0  0  0  0  0  0  0  0
    0.4169    0.9979   -0.1221 C   0  0  0  0  0  0  0  0  0  0  0  0
   -0.7778    1.0271   -0.8895 C   0  0  0  0  0  0  0  0  0  0  0  0
   -1.8972    0.3777   -0.4127 C   0  0  0  0  0  0  0  0  0  0  0  0
   -3.1012    2.9495   -0.4888 H   0  0  0  0  0  0  0  0  0  0  0  0
    1.4516    0.3172    1.6042 H   0  0  0  0  0  0  0  0  0  0  0  0
    1.2925    1.5165   -0.5094 H   0  0  0  0  0  0  0  0  0  0  0  0
   -0.7973    1.5262   -1.8537 H   0  0  0  0  0  0  0  0  0  0  0  0
   -2.8316    0.3281   -0.9643 H   0  0  0  0  0  0  0  0  0  0  0  0
   -5.2118    2.5668   -0.5127 S   0  0  0  0  0  0  0  0  0  0  0  0
   -3.8955    3.5063   -0.5883 O   0  0  0  0  0  0  0  0  0  0  0  0
   -4.9292    1.4172    0.3231 O   0  0  0  0  0  0  0  0  0  0  0  0
   -6.3257    3.4644   -0.3090 O   0  0  0  0  0  0  0  0  0  0  0  0
   -5.2818    1.9785   -2.0288 O   0  0  0  0  0  0  0  0  0  0  0  0
   -5.7369    2.6332   -2.5860 H   0  0  0  0  0  0  0  0  0  0  0  0
  1  2  1  0  0  0  0
  1  4  2  0  0  0  0
  2  3  1  0  0  0  0
  5 10  1  0  0  0  0
  5  4  1  0  0  0  0
  6  5  2  0  0  0  0
  7  8  2  0  0  0  0
  7  6  1  0  0  0  0
  8  1  1  0  0  0  0
 11  6  1  0  0  0  0
 12  7  1  0  0  0  0
 13  8  1  0  0  0  0
 14 17  2  0  0  0  0
 14 16  2  0  0  0  0
 15 14  1  0  0  0  0
 15  9  1  0  0  0  0
 18 14  1  0  0  0  0
 19 18  1  0  0  0  0
M  RAD  3   2   2   3   3   4   2
M  END
