Coordinates from ORCA-job PhN2+~HSO4-_B3LYPG-6-31G_dp-CH-Scan-d09-49-n800
 OpenBabel11261919183D

 19 18  0  0  0  0  0  0  0  0999 V2000
   -2.0400   -0.1656   -0.0028 C   0  0  0  0  0  0  0  0  0  0  0  0
   -3.3364   -0.6388    0.1412 N   0  0  0  0  0  0  0  0  0  0  0  0
   -4.3882   -0.9898    0.2672 N   0  0  0  0  0  0  0  0  0  0  0  0
   -1.8718    1.2096    0.2467 C   0  0  0  0  0  0  0  0  0  0  0  0
   -0.5165    1.5856    0.0823 C   0  0  0  0  0  0  0  0  0  0  0  0
    0.4914    0.6944   -0.2778 C   0  0  0  0  0  0  0  0  0  0  0  0
    0.2208   -0.6730   -0.5084 C   0  0  0  0  0  0  0  0  0  0  0  0
   -1.0703   -1.1351   -0.3720 C   0  0  0  0  0  0  0  0  0  0  0  0
   -3.2809    2.4500    0.7002 H   0  0  0  0  0  0  0  0  0  0  0  0
   -0.2413    2.6260    0.2461 H   0  0  0  0  0  0  0  0  0  0  0  0
    1.5138    1.0492   -0.3875 H   0  0  0  0  0  0  0  0  0  0  0  0
    1.0182   -1.3527   -0.7894 H   0  0  0  0  0  0  0  0  0  0  0  0
   -1.3346   -2.1750   -0.5392 H   0  0  0  0  0  0  0  0  0  0  0  0
   -5.2987    2.9099    0.0436 S   0  0  0  0  0  0  0  0  0  0  0  0
   -4.0177    3.1254    0.9435 O   0  0  0  0  0  0  0  0  0  0  0  0
   -5.4166    1.5112   -0.3403 O   0  0  0  0  0  0  0  0  0  0  0  0
   -6.3947    3.6371    0.6578 O   0  0  0  0  0  0  0  0  0  0  0  0
   -4.9076    3.6866   -1.3434 O   0  0  0  0  0  0  0  0  0  0  0  0
   -5.1444    4.6205   -1.2189 H   0  0  0  0  0  0  0  0  0  0  0  0
  1  2  1  0  0  0  0
  1  4  2  0  0  0  0
  2  3  1  0  0  0  0
  5 10  1  0  0  0  0
  5  4  1  0  0  0  0
  6  5  2  0  0  0  0
  7  8  2  0  0  0  0
  7  6  1  0  0  0  0
  8  1  1  0  0  0  0
  9 15  1  0  0  0  0
 11  6  1  0  0  0  0
 12  7  1  0  0  0  0
 13  8  1  0  0  0  0
 14 17  2  0  0  0  0
 14 15  1  0  0  0  0
 16 14  2  0  0  0  0
 18 19  1  0  0  0  0
 18 14  1  0  0  0  0
M  RAD  3   2   2   3   3   4   2
M  END
