Coordinates from ORCA-job PhN2+~HSO4-_B3LYPG-6-31G_dp-CH-Scan-d09-49-n800
 OpenBabel11261919183D

 19 18  0  0  0  0  0  0  0  0999 V2000
   -1.7422   -0.2500   -0.0545 C   0  0  0  0  0  0  0  0  0  0  0  0
   -3.0880   -0.5888    0.0640 N   0  0  0  0  0  0  0  0  0  0  0  0
   -4.1769   -0.8157    0.1799 N   0  0  0  0  0  0  0  0  0  0  0  0
   -1.4704    1.0791    0.3113 C   0  0  0  0  0  0  0  0  0  0  0  0
   -0.0766    1.3311    0.1653 C   0  0  0  0  0  0  0  0  0  0  0  0
    0.8434    0.3844   -0.2745 C   0  0  0  0  0  0  0  0  0  0  0  0
    0.4493   -0.9328   -0.6166 C   0  0  0  0  0  0  0  0  0  0  0  0
   -0.8779   -1.2832   -0.5108 C   0  0  0  0  0  0  0  0  0  0  0  0
   -3.9085    3.2955    1.1001 H   0  0  0  0  0  0  0  0  0  0  0  0
    0.3044    2.3229    0.4110 H   0  0  0  0  0  0  0  0  0  0  0  0
    1.8958    0.6492   -0.3634 H   0  0  0  0  0  0  0  0  0  0  0  0
    1.1834   -1.6560   -0.9567 H   0  0  0  0  0  0  0  0  0  0  0  0
   -1.2395   -2.2773   -0.7596 H   0  0  0  0  0  0  0  0  0  0  0  0
   -5.7940    3.1426    0.0971 S   0  0  0  0  0  0  0  0  0  0  0  0
   -4.7316    3.8171    1.1110 O   0  0  0  0  0  0  0  0  0  0  0  0
   -5.5808    1.7112    0.0537 O   0  0  0  0  0  0  0  0  0  0  0  0
   -7.0675    3.7586    0.4018 O   0  0  0  0  0  0  0  0  0  0  0  0
   -5.2840    3.6981   -1.3449 O   0  0  0  0  0  0  0  0  0  0  0  0
   -5.6538    4.5893   -1.4654 H   0  0  0  0  0  0  0  0  0  0  0  0
  1  2  1  0  0  0  0
  1  4  2  0  0  0  0
  2  3  1  0  0  0  0
  5  4  1  0  0  0  0
  5 10  1  0  0  0  0
  6  5  2  0  0  0  0
  7  8  2  0  0  0  0
  7  6  1  0  0  0  0
  8  1  1  0  0  0  0
  9 15  1  0  0  0  0
 11  6  1  0  0  0  0
 12  7  1  0  0  0  0
 13  8  1  0  0  0  0
 14 17  2  0  0  0  0
 14 15  1  0  0  0  0
 16 14  2  0  0  0  0
 18 14  1  0  0  0  0
 19 18  1  0  0  0  0
M  RAD  3   2   2   3   3   4   2
M  END
