Coordinates from ORCA-job PhN2+~HSO4-_B3LYPG-6-31G_dp-CH-Scan-d09-49-n800
 OpenBabel11261919183D

 19 18  0  0  0  0  0  0  0  0999 V2000
   -1.5918   -0.2835    0.0093 C   0  0  0  0  0  0  0  0  0  0  0  0
   -2.9495   -0.5502    0.1898 N   0  0  0  0  0  0  0  0  0  0  0  0
   -4.0428   -0.7079    0.3677 N   0  0  0  0  0  0  0  0  0  0  0  0
   -1.2297    0.9944    0.4625 C   0  0  0  0  0  0  0  0  0  0  0  0
    0.1672    1.1831    0.2490 C   0  0  0  0  0  0  0  0  0  0  0  0
    1.0039    0.2297   -0.3223 C   0  0  0  0  0  0  0  0  0  0  0  0
    0.5161   -1.0335   -0.7420 C   0  0  0  0  0  0  0  0  0  0  0  0
   -0.8203   -1.3221   -0.5808 C   0  0  0  0  0  0  0  0  0  0  0  0
   -4.3303    3.6878    1.3125 H   0  0  0  0  0  0  0  0  0  0  0  0
    0.6190    2.1303    0.5477 H   0  0  0  0  0  0  0  0  0  0  0  0
    2.0627    0.4457   -0.4576 H   0  0  0  0  0  0  0  0  0  0  0  0
    1.1875   -1.7635   -1.1828 H   0  0  0  0  0  0  0  0  0  0  0  0
   -1.2522   -2.2728   -0.8823 H   0  0  0  0  0  0  0  0  0  0  0  0
   -5.9930    3.2219    0.0461 S   0  0  0  0  0  0  0  0  0  0  0  0
   -5.2039    4.0901    1.1649 O   0  0  0  0  0  0  0  0  0  0  0  0
   -5.5459    1.8470    0.1096 O   0  0  0  0  0  0  0  0  0  0  0  0
   -7.3772    3.6309    0.1442 O   0  0  0  0  0  0  0  0  0  0  0  0
   -5.3740    3.8176   -1.3343 O   0  0  0  0  0  0  0  0  0  0  0  0
   -5.8615    4.6304   -1.5523 H   0  0  0  0  0  0  0  0  0  0  0  0
  1  2  1  0  0  0  0
  1  4  2  0  0  0  0
  2  3  1  0  0  0  0
  5  4  1  0  0  0  0
  5 10  1  0  0  0  0
  6  5  2  0  0  0  0
  7  8  2  0  0  0  0
  7  6  1  0  0  0  0
  8  1  1  0  0  0  0
 11  6  1  0  0  0  0
 12  7  1  0  0  0  0
 13  8  1  0  0  0  0
 14 16  2  0  0  0  0
 14 17  2  0  0  0  0
 14 15  1  0  0  0  0
 15  9  1  0  0  0  0
 18 14  1  0  0  0  0
 19 18  1  0  0  0  0
M  RAD  3   2   2   3   3   4   2
M  END
