Coordinates from ORCA-job PhN2+~HSO4-_B3LYPG-6-31G_dp-CH-Scan-d09-49-n800
 OpenBabel11261919183D

 19 18  0  0  0  0  0  0  0  0999 V2000
   -1.7755   -0.2407   -0.0522 C   0  0  0  0  0  0  0  0  0  0  0  0
   -3.1165   -0.5960    0.0666 N   0  0  0  0  0  0  0  0  0  0  0  0
   -4.2017   -0.8393    0.1812 N   0  0  0  0  0  0  0  0  0  0  0  0
   -1.5165    1.0939    0.3041 C   0  0  0  0  0  0  0  0  0  0  0  0
   -0.1261    1.3605    0.1580 C   0  0  0  0  0  0  0  0  0  0  0  0
    0.8046    0.4205   -0.2741 C   0  0  0  0  0  0  0  0  0  0  0  0
    0.4249   -0.9029   -0.6071 C   0  0  0  0  0  0  0  0  0  0  0  0
   -0.8986   -1.2668   -0.5002 C   0  0  0  0  0  0  0  0  0  0  0  0
   -3.8388    3.2092    1.0685 H   0  0  0  0  0  0  0  0  0  0  0  0
    0.2434    2.3581    0.3970 H   0  0  0  0  0  0  0  0  0  0  0  0
    1.8541    0.6962   -0.3637 H   0  0  0  0  0  0  0  0  0  0  0  0
    1.1669   -1.6207   -0.9415 H   0  0  0  0  0  0  0  0  0  0  0  0
   -1.2490   -2.2664   -0.7425 H   0  0  0  0  0  0  0  0  0  0  0  0
   -5.7445    3.1192    0.0965 S   0  0  0  0  0  0  0  0  0  0  0  0
   -4.6502    3.7501    1.1018 O   0  0  0  0  0  0  0  0  0  0  0  0
   -5.5781    1.6820    0.0353 O   0  0  0  0  0  0  0  0  0  0  0  0
   -6.9952    3.7702    0.4232 O   0  0  0  0  0  0  0  0  0  0  0  0
   -5.2372    3.6725   -1.3477 O   0  0  0  0  0  0  0  0  0  0  0  0
   -5.5814    4.5757   -1.4543 H   0  0  0  0  0  0  0  0  0  0  0  0
  1  2  1  0  0  0  0
  1  4  2  0  0  0  0
  2  3  1  0  0  0  0
  5  4  1  0  0  0  0
  5 10  1  0  0  0  0
  6  5  2  0  0  0  0
  7  8  2  0  0  0  0
  7  6  1  0  0  0  0
  8  1  1  0  0  0  0
  9 15  1  0  0  0  0
 11  6  1  0  0  0  0
 12  7  1  0  0  0  0
 13  8  1  0  0  0  0
 14 17  2  0  0  0  0
 14 15  1  0  0  0  0
 16 14  2  0  0  0  0
 18 14  1  0  0  0  0
 19 18  1  0  0  0  0
M  RAD  3   2   2   3   3   4   2
M  END
