Coordinates from ORCA-job PhN2+~HSO4-_B3LYPG-6-31G_dp-CH-Scan-d09-49-n800
 OpenBabel11261919183D

 19 18  0  0  0  0  0  0  0  0999 V2000
   -1.6944   -0.2627   -0.0490 C   0  0  0  0  0  0  0  0  0  0  0  0
   -3.0461   -0.5782    0.0775 N   0  0  0  0  0  0  0  0  0  0  0  0
   -4.1388   -0.7816    0.2025 N   0  0  0  0  0  0  0  0  0  0  0  0
   -1.4005    1.0556    0.3368 C   0  0  0  0  0  0  0  0  0  0  0  0
   -0.0032    1.2865    0.1823 C   0  0  0  0  0  0  0  0  0  0  0  0
    0.8974    0.3326   -0.2813 C   0  0  0  0  0  0  0  0  0  0  0  0
    0.4791   -0.9726   -0.6417 C   0  0  0  0  0  0  0  0  0  0  0  0
   -0.8526   -1.3032   -0.5300 C   0  0  0  0  0  0  0  0  0  0  0  0
   -4.0245    3.4297    1.1612 H   0  0  0  0  0  0  0  0  0  0  0  0
    0.3967    2.2678    0.4408 H   0  0  0  0  0  0  0  0  0  0  0  0
    1.9533    0.5817   -0.3753 H   0  0  0  0  0  0  0  0  0  0  0  0
    1.1986   -1.7017   -0.9999 H   0  0  0  0  0  0  0  0  0  0  0  0
   -1.2328   -2.2870   -0.7917 H   0  0  0  0  0  0  0  0  0  0  0  0
   -5.8612    3.1725    0.0910 S   0  0  0  0  0  0  0  0  0  0  0  0
   -4.8674    3.9160    1.1292 O   0  0  0  0  0  0  0  0  0  0  0  0
   -5.5706    1.7546    0.0787 O   0  0  0  0  0  0  0  0  0  0  0  0
   -7.1734    3.7264    0.3460 O   0  0  0  0  0  0  0  0  0  0  0  0
   -5.3322    3.7350   -1.3408 O   0  0  0  0  0  0  0  0  0  0  0  0
   -5.7431    4.6040   -1.4875 H   0  0  0  0  0  0  0  0  0  0  0  0
  1  2  1  0  0  0  0
  1  4  2  0  0  0  0
  2  3  1  0  0  0  0
  5  4  1  0  0  0  0
  5 10  1  0  0  0  0
  6  5  2  0  0  0  0
  7  8  2  0  0  0  0
  7  6  1  0  0  0  0
  8  1  1  0  0  0  0
 11  6  1  0  0  0  0
 12  7  1  0  0  0  0
 13  8  1  0  0  0  0
 14 17  2  0  0  0  0
 14 15  1  0  0  0  0
 15  9  1  0  0  0  0
 16 14  2  0  0  0  0
 18 14  1  0  0  0  0
 19 18  1  0  0  0  0
M  RAD  3   2   2   3   3   4   2
M  END
