Coordinates from ORCA-job PhN2+~HSO4-_B3LYPG-6-31G_dp-CH-Scan-d09-49-n800
 OpenBabel11261919183D

 19 18  0  0  0  0  0  0  0  0999 V2000
   -1.9678   -0.1820   -0.0581 C   0  0  0  0  0  0  0  0  0  0  0  0
   -3.2814   -0.6221    0.0399 N   0  0  0  0  0  0  0  0  0  0  0  0
   -4.3460   -0.9472    0.1287 N   0  0  0  0  0  0  0  0  0  0  0  0
   -1.7802    1.1818    0.2334 C   0  0  0  0  0  0  0  0  0  0  0  0
   -0.4091    1.5256    0.1121 C   0  0  0  0  0  0  0  0  0  0  0  0
    0.5856    0.6198   -0.2462 C   0  0  0  0  0  0  0  0  0  0  0  0
    0.2892   -0.7354   -0.5208 C   0  0  0  0  0  0  0  0  0  0  0  0
   -1.0152   -1.1689   -0.4297 C   0  0  0  0  0  0  0  0  0  0  0  0
   -3.4188    2.6818    0.7756 H   0  0  0  0  0  0  0  0  0  0  0  0
   -0.1089    2.5534    0.3105 H   0  0  0  0  0  0  0  0  0  0  0  0
    1.6193    0.9514   -0.3205 H   0  0  0  0  0  0  0  0  0  0  0  0
    1.0779   -1.4262   -0.7998 H   0  0  0  0  0  0  0  0  0  0  0  0
   -1.3003   -2.1974   -0.6313 H   0  0  0  0  0  0  0  0  0  0  0  0
   -5.4417    2.9872    0.1182 S   0  0  0  0  0  0  0  0  0  0  0  0
   -4.1431    3.3372    0.9752 O   0  0  0  0  0  0  0  0  0  0  0  0
   -5.5580    1.5503   -0.0544 O   0  0  0  0  0  0  0  0  0  0  0  0
   -6.5169    3.8043    0.6447 O   0  0  0  0  0  0  0  0  0  0  0  0
   -5.0532    3.5548   -1.3630 O   0  0  0  0  0  0  0  0  0  0  0  0
   -5.2469    4.5071   -1.3659 H   0  0  0  0  0  0  0  0  0  0  0  0
  1  2  1  0  0  0  0
  1  4  2  0  0  0  0
  2  3  1  0  0  0  0
  5  4  1  0  0  0  0
  5 10  1  0  0  0  0
  6  5  2  0  0  0  0
  7  8  2  0  0  0  0
  7  6  1  0  0  0  0
  8  1  1  0  0  0  0
  9 15  1  0  0  0  0
 11  6  1  0  0  0  0
 12  7  1  0  0  0  0
 13  8  1  0  0  0  0
 14 17  2  0  0  0  0
 14 15  1  0  0  0  0
 16 14  2  0  0  0  0
 18 14  1  0  0  0  0
 19 18  1  0  0  0  0
M  RAD  3   2   2   3   3   4   2
M  END
