Coordinates from ORCA-job PhN2+~HSO4-_B3LYPG-6-31G_dp-CH-Scan-d09-49-n800
 OpenBabel11261919183D

 19 18  0  0  0  0  0  0  0  0999 V2000
   -1.9438   -0.1892   -0.0579 C   0  0  0  0  0  0  0  0  0  0  0  0
   -3.2611   -0.6186    0.0427 N   0  0  0  0  0  0  0  0  0  0  0  0
   -4.3285   -0.9343    0.1345 N   0  0  0  0  0  0  0  0  0  0  0  0
   -1.7477    1.1718    0.2399 C   0  0  0  0  0  0  0  0  0  0  0  0
   -0.3740    1.5062    0.1157 C   0  0  0  0  0  0  0  0  0  0  0  0
    0.6132    0.5954   -0.2502 C   0  0  0  0  0  0  0  0  0  0  0  0
    0.3068   -0.7568   -0.5303 C   0  0  0  0  0  0  0  0  0  0  0  0
   -1.0000   -1.1820   -0.4371 C   0  0  0  0  0  0  0  0  0  0  0  0
   -3.4688    2.7466    0.8116 H   0  0  0  0  0  0  0  0  0  0  0  0
   -0.0652    2.5310    0.3177 H   0  0  0  0  0  0  0  0  0  0  0  0
    1.6491    0.9202   -0.3265 H   0  0  0  0  0  0  0  0  0  0  0  0
    1.0901   -1.4514   -0.8150 H   0  0  0  0  0  0  0  0  0  0  0  0
   -1.2929   -2.2076   -0.6425 H   0  0  0  0  0  0  0  0  0  0  0  0
   -5.4822    3.0032    0.1150 S   0  0  0  0  0  0  0  0  0  0  0  0
   -4.2044    3.3856    0.9956 O   0  0  0  0  0  0  0  0  0  0  0  0
   -5.5657    1.5637   -0.0484 O   0  0  0  0  0  0  0  0  0  0  0  0
   -6.5795    3.8043    0.6188 O   0  0  0  0  0  0  0  0  0  0  0  0
   -5.0753    3.5693   -1.3607 O   0  0  0  0  0  0  0  0  0  0  0  0
   -5.2856    4.5181   -1.3741 H   0  0  0  0  0  0  0  0  0  0  0  0
  1  2  1  0  0  0  0
  1  4  2  0  0  0  0
  2  3  1  0  0  0  0
  5  4  1  0  0  0  0
  5 10  1  0  0  0  0
  6  5  2  0  0  0  0
  7  8  2  0  0  0  0
  7  6  1  0  0  0  0
  8  1  1  0  0  0  0
  9 15  1  0  0  0  0
 11  6  1  0  0  0  0
 12  7  1  0  0  0  0
 13  8  1  0  0  0  0
 14 17  2  0  0  0  0
 14 15  1  0  0  0  0
 16 14  2  0  0  0  0
 18 14  1  0  0  0  0
 19 18  1  0  0  0  0
M  RAD  3   2   2   3   3   4   2
M  END
