Coordinates from ORCA-job PhN2+~HSO4-_B3LYPG-6-31G_dp-CH-Scan-d09-49-n800
 OpenBabel11261919183D

 19 18  0  0  0  0  0  0  0  0999 V2000
   -1.6462   -0.2744   -0.0289 C   0  0  0  0  0  0  0  0  0  0  0  0
   -3.0019   -0.5672    0.1170 N   0  0  0  0  0  0  0  0  0  0  0  0
   -4.0962   -0.7495    0.2614 N   0  0  0  0  0  0  0  0  0  0  0  0
   -1.3239    1.0279    0.3849 C   0  0  0  0  0  0  0  0  0  0  0  0
    0.0746    1.2385    0.2088 C   0  0  0  0  0  0  0  0  0  0  0  0
    0.9492    0.2820   -0.2972 C   0  0  0  0  0  0  0  0  0  0  0  0
    0.5013   -1.0065   -0.6826 C   0  0  0  0  0  0  0  0  0  0  0  0
   -0.8336   -1.3173   -0.5531 C   0  0  0  0  0  0  0  0  0  0  0  0
   -4.1619    3.5708    1.2329 H   0  0  0  0  0  0  0  0  0  0  0  0
    0.4970    2.2059    0.4844 H   0  0  0  0  0  0  0  0  0  0  0  0
    2.0073    0.5155   -0.4062 H   0  0  0  0  0  0  0  0  0  0  0  0
    1.2012   -1.7381   -1.0732 H   0  0  0  0  0  0  0  0  0  0  0  0
   -1.2359   -2.2876   -0.8316 H   0  0  0  0  0  0  0  0  0  0  0  0
   -5.9245    3.1974    0.0750 S   0  0  0  0  0  0  0  0  0  0  0  0
   -5.0267    4.0095    1.1512 O   0  0  0  0  0  0  0  0  0  0  0  0
   -5.5512    1.7993    0.0979 O   0  0  0  0  0  0  0  0  0  0  0  0
   -7.2767    3.6778    0.2588 O   0  0  0  0  0  0  0  0  0  0  0  0
   -5.3573    3.7748   -1.3357 O   0  0  0  0  0  0  0  0  0  0  0  0
   -5.8100    4.6166   -1.5152 H   0  0  0  0  0  0  0  0  0  0  0  0
  1  2  1  0  0  0  0
  1  4  2  0  0  0  0
  2  3  1  0  0  0  0
  5  4  1  0  0  0  0
  5 10  1  0  0  0  0
  6  5  2  0  0  0  0
  7  8  2  0  0  0  0
  7  6  1  0  0  0  0
  8  1  1  0  0  0  0
 11  6  1  0  0  0  0
 12  7  1  0  0  0  0
 13  8  1  0  0  0  0
 14 16  2  0  0  0  0
 14 17  2  0  0  0  0
 14 15  1  0  0  0  0
 15  9  1  0  0  0  0
 18 14  1  0  0  0  0
 19 18  1  0  0  0  0
M  RAD  3   2   2   3   3   4   2
M  END
