Coordinates from ORCA-job PhN2+~HSO4-_B3LYPG-6-31G_dp-CH-Scan-d09-49-n800
 OpenBabel11261919183D

 19 18  0  0  0  0  0  0  0  0999 V2000
   -1.6098   -0.2808   -0.0032 C   0  0  0  0  0  0  0  0  0  0  0  0
   -2.9668   -0.5563    0.1671 N   0  0  0  0  0  0  0  0  0  0  0  0
   -4.0610   -0.7225    0.3308 N   0  0  0  0  0  0  0  0  0  0  0  0
   -1.2616    1.0069    0.4336 C   0  0  0  0  0  0  0  0  0  0  0  0
    0.1358    1.2029    0.2314 C   0  0  0  0  0  0  0  0  0  0  0  0
    0.9856    0.2473   -0.3164 C   0  0  0  0  0  0  0  0  0  0  0  0
    0.5117   -1.0260   -0.7214 C   0  0  0  0  0  0  0  0  0  0  0  0
   -0.8241   -1.3222   -0.5693 C   0  0  0  0  0  0  0  0  0  0  0  0
   -4.2807    3.6497    1.2959 H   0  0  0  0  0  0  0  0  0  0  0  0
    0.5774    2.1581    0.5198 H   0  0  0  0  0  0  0  0  0  0  0  0
    2.0441    0.4693   -0.4441 H   0  0  0  0  0  0  0  0  0  0  0  0
    1.1929   -1.7575   -1.1440 H   0  0  0  0  0  0  0  0  0  0  0  0
   -1.2458   -2.2806   -0.8606 H   0  0  0  0  0  0  0  0  0  0  0  0
   -5.9702    3.2136    0.0545 S   0  0  0  0  0  0  0  0  0  0  0  0
   -5.1520    4.0630    1.1662 O   0  0  0  0  0  0  0  0  0  0  0  0
   -5.5450    1.8312    0.1039 O   0  0  0  0  0  0  0  0  0  0  0  0
   -7.3462    3.6440    0.1744 O   0  0  0  0  0  0  0  0  0  0  0  0
   -5.3615    3.8066   -1.3317 O   0  0  0  0  0  0  0  0  0  0  0  0
   -5.8384    4.6287   -1.5380 H   0  0  0  0  0  0  0  0  0  0  0  0
  1  2  1  0  0  0  0
  1  4  2  0  0  0  0
  2  3  1  0  0  0  0
  5  4  1  0  0  0  0
  5 10  1  0  0  0  0
  6  5  2  0  0  0  0
  7  8  2  0  0  0  0
  7  6  1  0  0  0  0
  8  1  1  0  0  0  0
 11  6  1  0  0  0  0
 12  7  1  0  0  0  0
 13  8  1  0  0  0  0
 14 16  2  0  0  0  0
 14 17  2  0  0  0  0
 14 15  1  0  0  0  0
 15  9  1  0  0  0  0
 18 14  1  0  0  0  0
 19 18  1  0  0  0  0
M  RAD  3   2   2   3   3   4   2
M  END
