Coordinates from ORCA-job PhN2+~HSO4-_B3LYPG-6-31G_dp-CH-Scan-d09-49-n800
 OpenBabel11261919183D

 19 18  0  0  0  0  0  0  0  0999 V2000
   -2.0662    0.0089   -0.3845 C   0  0  0  0  0  0  0  0  0  0  0  0
   -3.3854   -0.3189   -0.6521 N   0  0  0  0  0  0  0  0  0  0  0  0
   -4.4630   -0.5284   -0.8435 N   0  0  0  0  0  0  0  0  0  0  0  0
   -1.7915    1.3637   -0.1307 C   0  0  0  0  0  0  0  0  0  0  0  0
   -0.4355    1.6150    0.1322 C   0  0  0  0  0  0  0  0  0  0  0  0
    0.5242    0.6032    0.1342 C   0  0  0  0  0  0  0  0  0  0  0  0
    0.1783   -0.7357   -0.1329 C   0  0  0  0  0  0  0  0  0  0  0  0
   -1.1375   -1.0581   -0.4019 C   0  0  0  0  0  0  0  0  0  0  0  0
   -2.7883    2.3829   -0.1201 H   0  0  0  0  0  0  0  0  0  0  0  0
   -0.1285    2.6355    0.3449 H   0  0  0  0  0  0  0  0  0  0  0  0
    1.5622    0.8458    0.3465 H   0  0  0  0  0  0  0  0  0  0  0  0
    0.9364   -1.5113   -0.1275 H   0  0  0  0  0  0  0  0  0  0  0  0
   -1.4512   -2.0753   -0.6127 H   0  0  0  0  0  0  0  0  0  0  0  0
   -5.0346    2.9505    0.3304 S   0  0  0  0  0  0  0  0  0  0  0  0
   -3.6266    3.3485   -0.1201 O   0  0  0  0  0  0  0  0  0  0  0  0
   -5.0837    1.5187    0.6651 O   0  0  0  0  0  0  0  0  0  0  0  0
   -5.6146    3.9188    1.2569 O   0  0  0  0  0  0  0  0  0  0  0  0
   -5.9274    3.0545   -1.0579 O   0  0  0  0  0  0  0  0  0  0  0  0
   -6.2826    3.9571   -1.0774 H   0  0  0  0  0  0  0  0  0  0  0  0
  1  4  1  0  0  0  0
  2  1  1  0  0  0  0
  3  2  1  0  0  0  0
  4  5  2  0  0  0  0
  5  6  1  0  0  0  0
  5 10  1  0  0  0  0
  6 11  1  0  0  0  0
  7 12  1  0  0  0  0
  7  6  2  0  0  0  0
  8  1  2  0  0  0  0
  8  7  1  0  0  0  0
 13  8  1  0  0  0  0
 14 16  2  0  0  0  0
 14 17  2  0  0  0  0
 15  9  1  0  0  0  0
 15 14  1  0  0  0  0
 18 14  1  0  0  0  0
 19 18  1  0  0  0  0
M  RAD  3   2   2   3   3   4   2
M  END
