Coordinates from ORCA-job PhN2+~HSO4-_B3LYPG-6-31G_dp-CH-Scan-d09-49-n800
 OpenBabel11261919183D

 19 18  0  0  0  0  0  0  0  0999 V2000
   -1.6915   -0.2633   -0.0487 C   0  0  0  0  0  0  0  0  0  0  0  0
   -3.0436   -0.5774    0.0783 N   0  0  0  0  0  0  0  0  0  0  0  0
   -4.1364   -0.7800    0.2042 N   0  0  0  0  0  0  0  0  0  0  0  0
   -1.3960    1.0542    0.3379 C   0  0  0  0  0  0  0  0  0  0  0  0
    0.0014    1.2839    0.1830 C   0  0  0  0  0  0  0  0  0  0  0  0
    0.9007    0.3295   -0.2817 C   0  0  0  0  0  0  0  0  0  0  0  0
    0.4809   -0.9750   -0.6430 C   0  0  0  0  0  0  0  0  0  0  0  0
   -0.8511   -1.3044   -0.5310 C   0  0  0  0  0  0  0  0  0  0  0  0
   -4.0320    3.4373    1.1648 H   0  0  0  0  0  0  0  0  0  0  0  0
    0.4024    2.2647    0.4421 H   0  0  0  0  0  0  0  0  0  0  0  0
    1.9569    0.5775   -0.3761 H   0  0  0  0  0  0  0  0  0  0  0  0
    1.1995   -1.7045   -1.0022 H   0  0  0  0  0  0  0  0  0  0  0  0
   -1.2324   -2.2876   -0.7932 H   0  0  0  0  0  0  0  0  0  0  0  0
   -5.8654    3.1743    0.0906 S   0  0  0  0  0  0  0  0  0  0  0  0
   -4.8759    3.9215    1.1305 O   0  0  0  0  0  0  0  0  0  0  0  0
   -5.5706    1.7572    0.0795 O   0  0  0  0  0  0  0  0  0  0  0  0
   -7.1797    3.7245    0.3428 O   0  0  0  0  0  0  0  0  0  0  0  0
   -5.3350    3.7375   -1.3404 O   0  0  0  0  0  0  0  0  0  0  0  0
   -5.7479    4.6054   -1.4884 H   0  0  0  0  0  0  0  0  0  0  0  0
  1  2  1  0  0  0  0
  1  4  2  0  0  0  0
  2  3  1  0  0  0  0
  5  4  1  0  0  0  0
  5 10  1  0  0  0  0
  6  5  2  0  0  0  0
  7  8  2  0  0  0  0
  7  6  1  0  0  0  0
  8  1  1  0  0  0  0
 11  6  1  0  0  0  0
 12  7  1  0  0  0  0
 13  8  1  0  0  0  0
 14 17  2  0  0  0  0
 14 15  1  0  0  0  0
 15  9  1  0  0  0  0
 16 14  2  0  0  0  0
 18 14  1  0  0  0  0
 19 18  1  0  0  0  0
M  RAD  3   2   2   3   3   4   2
M  END
