Coordinates from ORCA-job PhN2+~HSO4-_B3LYPG-6-31G_dp-CH-Scan-d09-49-n800
 OpenBabel11261919183D

 19 18  0  0  0  0  0  0  0  0999 V2000
   -1.7004   -0.2382    0.8534 C   0  0  0  0  0  0  0  0  0  0  0  0
   -2.8457   -0.8306    1.3933 N   0  0  0  0  0  0  0  0  0  0  0  0
   -3.7136   -1.3265    1.8946 N   0  0  0  0  0  0  0  0  0  0  0  0
   -0.5845   -0.4003    1.6861 C   0  0  0  0  0  0  0  0  0  0  0  0
    0.5361    0.2528    1.0873 C   0  0  0  0  0  0  0  0  0  0  0  0
    0.4847    0.9354   -0.1229 C   0  0  0  0  0  0  0  0  0  0  0  0
   -0.7103    1.0115   -0.8856 C   0  0  0  0  0  0  0  0  0  0  0  0
   -1.8529    0.4081   -0.4046 C   0  0  0  0  0  0  0  0  0  0  0  0
   -3.2015    3.0657   -0.4614 H   0  0  0  0  0  0  0  0  0  0  0  0
    1.4963    0.2221    1.6043 H   0  0  0  0  0  0  0  0  0  0  0  0
    1.3790    1.4180   -0.5140 H   0  0  0  0  0  0  0  0  0  0  0  0
   -0.7147    1.5149   -1.8476 H   0  0  0  0  0  0  0  0  0  0  0  0
   -2.7916    0.3985   -0.9508 H   0  0  0  0  0  0  0  0  0  0  0  0
   -5.2831    2.5552   -0.5273 S   0  0  0  0  0  0  0  0  0  0  0  0
   -4.0250    3.5748   -0.5707 O   0  0  0  0  0  0  0  0  0  0  0  0
   -4.9354    1.4086    0.2880 O   0  0  0  0  0  0  0  0  0  0  0  0
   -6.4514    3.3785   -0.3155 O   0  0  0  0  0  0  0  0  0  0  0  0
   -5.3040    1.9962   -2.0550 O   0  0  0  0  0  0  0  0  0  0  0  0
   -5.7976    2.6307   -2.6028 H   0  0  0  0  0  0  0  0  0  0  0  0
  1  2  1  0  0  0  0
  1  4  2  0  0  0  0
  2  3  1  0  0  0  0
  5 10  1  0  0  0  0
  5  4  1  0  0  0  0
  6  5  2  0  0  0  0
  7  8  2  0  0  0  0
  7  6  1  0  0  0  0
  8  1  1  0  0  0  0
 11  6  1  0  0  0  0
 12  7  1  0  0  0  0
 13  8  1  0  0  0  0
 14 17  2  0  0  0  0
 14 16  2  0  0  0  0
 15 14  1  0  0  0  0
 15  9  1  0  0  0  0
 18 14  1  0  0  0  0
 19 18  1  0  0  0  0
M  RAD  3   2   2   3   3   4   2
M  END
