Coordinates from ORCA-job PhN2+~HSO4-_B3LYPG-6-31G_dp-CH-Scan-d09-49-n800
 OpenBabel11261919183D

 19 18  0  0  0  0  0  0  0  0999 V2000
   -2.0100    0.3401   -0.0072 C   0  0  0  0  0  0  0  0  0  0  0  0
   -3.4009    0.1867    0.0526 N   0  0  0  0  0  0  0  0  0  0  0  0
   -4.4008   -0.3248    0.0832 N   0  0  0  0  0  0  0  0  0  0  0  0
   -1.4138    1.5430    0.3860 C   0  0  0  0  0  0  0  0  0  0  0  0
   -0.0229    1.6083    0.3350 C   0  0  0  0  0  0  0  0  0  0  0  0
    0.7295    0.5168   -0.1054 C   0  0  0  0  0  0  0  0  0  0  0  0
    0.1031   -0.6720   -0.4984 C   0  0  0  0  0  0  0  0  0  0  0  0
   -1.2807   -0.7777   -0.4481 C   0  0  0  0  0  0  0  0  0  0  0  0
   -1.9799    2.2983    0.6682 H   0  0  0  0  0  0  0  0  0  0  0  0
    0.4719    2.5260    0.6353 H   0  0  0  0  0  0  0  0  0  0  0  0
    1.8121    0.5902   -0.1462 H   0  0  0  0  0  0  0  0  0  0  0  0
    0.6921   -1.5163   -0.8409 H   0  0  0  0  0  0  0  0  0  0  0  0
   -1.7937   -1.6865   -0.7423 H   0  0  0  0  0  0  0  0  0  0  0  0
   -5.4086    2.6822    0.0275 S   0  0  0  0  0  0  0  0  0  0  0  0
   -3.9210    2.5568   -0.0603 O   0  0  0  0  0  0  0  0  0  0  0  0
   -6.0292    1.3506    0.2643 O   0  0  0  0  0  0  0  0  0  0  0  0
   -5.8998    3.7773    0.8680 O   0  0  0  0  0  0  0  0  0  0  0  0
   -5.8445    3.1013   -1.5155 O   0  0  0  0  0  0  0  0  0  0  0  0
   -6.4185    3.8751   -1.4071 H   0  0  0  0  0  0  0  0  0  0  0  0
  1  2  1  0  0  0  0
  1  4  2  0  0  0  0
  2  3  1  0  0  0  0
  4  9  1  0  0  0  0
  5  4  1  0  0  0  0
  5 10  1  0  0  0  0
  6  5  2  0  0  0  0
  7  8  2  0  0  0  0
  7  6  1  0  0  0  0
  8  1  1  0  0  0  0
 11  6  1  0  0  0  0
 12  7  1  0  0  0  0
 13  8  1  0  0  0  0
 14 16  2  0  0  0  0
 14 17  1  0  0  0  0
 15 14  2  0  0  0  0
 18 19  1  0  0  0  0
 18 14  1  0  0  0  0
M  RAD  3   2   2   3   3  17   2
M  END
