Coordinates from ORCA-job PhN2+~HSO4-_B3LYPG-6-31G_dp-CH-Scan-d09-49-n800
 OpenBabel11261919183D

 19 18  0  0  0  0  0  0  0  0999 V2000
   -1.8252   -0.2248   -0.0505 C   0  0  0  0  0  0  0  0  0  0  0  0
   -3.1593   -0.6024    0.0658 N   0  0  0  0  0  0  0  0  0  0  0  0
   -4.2393   -0.8683    0.1760 N   0  0  0  0  0  0  0  0  0  0  0  0
   -1.5839    1.1172    0.2921 C   0  0  0  0  0  0  0  0  0  0  0  0
   -0.1982    1.4038    0.1483 C   0  0  0  0  0  0  0  0  0  0  0  0
    0.7478    0.4730   -0.2706 C   0  0  0  0  0  0  0  0  0  0  0  0
    0.3886   -0.8587   -0.5910 C   0  0  0  0  0  0  0  0  0  0  0  0
   -0.9300   -1.2409   -0.4846 C   0  0  0  0  0  0  0  0  0  0  0  0
   -3.7327    3.0800    1.0102 H   0  0  0  0  0  0  0  0  0  0  0  0
    0.1548    2.4091    0.3784 H   0  0  0  0  0  0  0  0  0  0  0  0
    1.7933    0.7633   -0.3592 H   0  0  0  0  0  0  0  0  0  0  0  0
    1.1417   -1.5691   -0.9156 H   0  0  0  0  0  0  0  0  0  0  0  0
   -1.2644   -2.2479   -0.7181 H   0  0  0  0  0  0  0  0  0  0  0  0
   -5.6698    3.0836    0.0990 S   0  0  0  0  0  0  0  0  0  0  0  0
   -4.5251    3.6484    1.0819 O   0  0  0  0  0  0  0  0  0  0  0  0
   -5.5751    1.6405    0.0129 O   0  0  0  0  0  0  0  0  0  0  0  0
   -6.8822    3.7855    0.4642 O   0  0  0  0  0  0  0  0  0  0  0  0
   -5.1757    3.6321   -1.3525 O   0  0  0  0  0  0  0  0  0  0  0  0
   -5.4810    4.5512   -1.4379 H   0  0  0  0  0  0  0  0  0  0  0  0
  1  2  1  0  0  0  0
  1  4  2  0  0  0  0
  2  3  1  0  0  0  0
  5  4  1  0  0  0  0
  5 10  1  0  0  0  0
  6  5  2  0  0  0  0
  7  8  2  0  0  0  0
  7  6  1  0  0  0  0
  8  1  1  0  0  0  0
  9 15  1  0  0  0  0
 11  6  1  0  0  0  0
 12  7  1  0  0  0  0
 13  8  1  0  0  0  0
 14 17  2  0  0  0  0
 14 15  1  0  0  0  0
 16 14  2  0  0  0  0
 18 14  1  0  0  0  0
 19 18  1  0  0  0  0
M  RAD  3   2   2   3   3   4   2
M  END
