Coordinates from ORCA-job PhN2+~HSO4-_B3LYPG-6-31G_dp-CH-Scan-d09-49-n800
 OpenBabel11261919183D

 19 18  0  0  0  0  0  0  0  0999 V2000
   -1.7812   -0.2389   -0.0520 C   0  0  0  0  0  0  0  0  0  0  0  0
   -3.1214   -0.5965    0.0665 N   0  0  0  0  0  0  0  0  0  0  0  0
   -4.2059   -0.8425    0.1818 N   0  0  0  0  0  0  0  0  0  0  0  0
   -1.5240    1.0964    0.3034 C   0  0  0  0  0  0  0  0  0  0  0  0
   -0.1340    1.3651    0.1574 C   0  0  0  0  0  0  0  0  0  0  0  0
    0.7982    0.4263   -0.2737 C   0  0  0  0  0  0  0  0  0  0  0  0
    0.4207   -0.8979   -0.6059 C   0  0  0  0  0  0  0  0  0  0  0  0
   -0.9023   -1.2638   -0.4990 C   0  0  0  0  0  0  0  0  0  0  0  0
   -3.8272    3.1961    1.0630 H   0  0  0  0  0  0  0  0  0  0  0  0
    0.2337    2.3635    0.3959 H   0  0  0  0  0  0  0  0  0  0  0  0
    1.8473    0.7036   -0.3632 H   0  0  0  0  0  0  0  0  0  0  0  0
    1.1638   -1.6148   -0.9396 H   0  0  0  0  0  0  0  0  0  0  0  0
   -1.2510   -2.2640   -0.7407 H   0  0  0  0  0  0  0  0  0  0  0  0
   -5.7359    3.1151    0.0967 S   0  0  0  0  0  0  0  0  0  0  0  0
   -4.6365    3.7398    1.0998 O   0  0  0  0  0  0  0  0  0  0  0  0
   -5.5768    1.6770    0.0334 O   0  0  0  0  0  0  0  0  0  0  0  0
   -6.9829    3.7715    0.4269 O   0  0  0  0  0  0  0  0  0  0  0  0
   -5.2299    3.6674   -1.3484 O   0  0  0  0  0  0  0  0  0  0  0  0
   -5.5703    4.5721   -1.4532 H   0  0  0  0  0  0  0  0  0  0  0  0
  1  2  1  0  0  0  0
  1  4  2  0  0  0  0
  2  3  1  0  0  0  0
  5  4  1  0  0  0  0
  5 10  1  0  0  0  0
  6  5  2  0  0  0  0
  7  8  2  0  0  0  0
  7  6  1  0  0  0  0
  8  1  1  0  0  0  0
  9 15  1  0  0  0  0
 11  6  1  0  0  0  0
 12  7  1  0  0  0  0
 13  8  1  0  0  0  0
 14 17  2  0  0  0  0
 14 15  1  0  0  0  0
 16 14  2  0  0  0  0
 18 14  1  0  0  0  0
 19 18  1  0  0  0  0
M  RAD  3   2   2   3   3   4   2
M  END
