Coordinates from ORCA-job PhN2+~HSO4-_B3LYPG-6-31G_dp-CH-Scan-d09-49-n800
 OpenBabel11261919183D

 19 18  0  0  0  0  0  0  0  0999 V2000
   -1.6714   -0.2687   -0.0412 C   0  0  0  0  0  0  0  0  0  0  0  0
   -3.0253   -0.5735    0.0940 N   0  0  0  0  0  0  0  0  0  0  0  0
   -4.1189   -0.7667    0.2277 N   0  0  0  0  0  0  0  0  0  0  0  0
   -1.3649    1.0425    0.3570 C   0  0  0  0  0  0  0  0  0  0  0  0
    0.0332    1.2639    0.1936 C   0  0  0  0  0  0  0  0  0  0  0  0
    0.9222    0.3083   -0.2884 C   0  0  0  0  0  0  0  0  0  0  0  0
    0.4906   -0.9895   -0.6601 C   0  0  0  0  0  0  0  0  0  0  0  0
   -0.8428   -1.3108   -0.5411 C   0  0  0  0  0  0  0  0  0  0  0  0
   -4.0901    3.4980    1.1986 H   0  0  0  0  0  0  0  0  0  0  0  0
    0.4433    2.2391    0.4597 H   0  0  0  0  0  0  0  0  0  0  0  0
    1.9793    0.5501   -0.3886 H   0  0  0  0  0  0  0  0  0  0  0  0
    1.2014   -1.7201   -1.0324 H   0  0  0  0  0  0  0  0  0  0  0  0
   -1.2330   -2.2887   -0.8104 H   0  0  0  0  0  0  0  0  0  0  0  0
   -5.8917    3.1851    0.0843 S   0  0  0  0  0  0  0  0  0  0  0  0
   -4.9432    3.9635    1.1406 O   0  0  0  0  0  0  0  0  0  0  0  0
   -5.5606    1.7763    0.0901 O   0  0  0  0  0  0  0  0  0  0  0  0
   -7.2242    3.7042    0.3047 O   0  0  0  0  0  0  0  0  0  0  0  0
   -5.3442    3.7529   -1.3382 O   0  0  0  0  0  0  0  0  0  0  0  0
   -5.7753    4.6092   -1.5013 H   0  0  0  0  0  0  0  0  0  0  0  0
  1  2  1  0  0  0  0
  1  4  2  0  0  0  0
  2  3  1  0  0  0  0
  5  4  1  0  0  0  0
  5 10  1  0  0  0  0
  6  5  2  0  0  0  0
  7  8  2  0  0  0  0
  7  6  1  0  0  0  0
  8  1  1  0  0  0  0
 11  6  1  0  0  0  0
 12  7  1  0  0  0  0
 13  8  1  0  0  0  0
 14 16  2  0  0  0  0
 14 17  2  0  0  0  0
 14 15  1  0  0  0  0
 15  9  1  0  0  0  0
 18 14  1  0  0  0  0
 19 18  1  0  0  0  0
M  RAD  3   2   2   3   3   4   2
M  END
