Coordinates from ORCA-job PhN2+~HSO4-_B3LYPG-6-31G_dp-CH-Scan-d09-49-n800
 OpenBabel11261919183D

 19 18  0  0  0  0  0  0  0  0999 V2000
   -1.5518   -0.2857    0.0505 C   0  0  0  0  0  0  0  0  0  0  0  0
   -2.9091   -0.5316    0.2639 N   0  0  0  0  0  0  0  0  0  0  0  0
   -3.9998   -0.6707    0.4717 N   0  0  0  0  0  0  0  0  0  0  0  0
   -1.1506    0.9633    0.5477 C   0  0  0  0  0  0  0  0  0  0  0  0
    0.2427    1.1349    0.2983 C   0  0  0  0  0  0  0  0  0  0  0  0
    1.0412    0.1925   -0.3417 C   0  0  0  0  0  0  0  0  0  0  0  0
    0.5149   -1.0413   -0.8008 C   0  0  0  0  0  0  0  0  0  0  0  0
   -0.8213   -1.3118   -0.6094 C   0  0  0  0  0  0  0  0  0  0  0  0
   -4.4523    3.7723    1.3541 H   0  0  0  0  0  0  0  0  0  0  0  0
    0.7229    2.0591    0.6239 H   0  0  0  0  0  0  0  0  0  0  0  0
    2.0994    0.3942   -0.5018 H   0  0  0  0  0  0  0  0  0  0  0  0
    1.1572   -1.7633   -1.2948 H   0  0  0  0  0  0  0  0  0  0  0  0
   -1.2818   -2.2399   -0.9378 H   0  0  0  0  0  0  0  0  0  0  0  0
   -6.0382    3.2326    0.0205 S   0  0  0  0  0  0  0  0  0  0  0  0
   -5.3293    4.1457    1.1583 O   0  0  0  0  0  0  0  0  0  0  0  0
   -5.5404    1.8778    0.1236 O   0  0  0  0  0  0  0  0  0  0  0  0
   -7.4398    3.5887    0.0557 O   0  0  0  0  0  0  0  0  0  0  0  0
   -5.3853    3.8343   -1.3412 O   0  0  0  0  0  0  0  0  0  0  0  0
   -5.8942    4.6244   -1.5916 H   0  0  0  0  0  0  0  0  0  0  0  0
  1  2  1  0  0  0  0
  1  4  2  0  0  0  0
  2  3  1  0  0  0  0
  5  4  1  0  0  0  0
  5 10  1  0  0  0  0
  6  5  2  0  0  0  0
  7  8  2  0  0  0  0
  7  6  1  0  0  0  0
  8  1  1  0  0  0  0
 11  6  1  0  0  0  0
 12  7  1  0  0  0  0
 13  8  1  0  0  0  0
 14 17  2  0  0  0  0
 14 16  2  0  0  0  0
 14 15  1  0  0  0  0
 15  9  1  0  0  0  0
 18 14  1  0  0  0  0
 19 18  1  0  0  0  0
M  RAD  3   2   2   3   3   4   2
M  END
