Coordinates from ORCA-job PhN2+~HSO4-_B3LYPG-6-31G_dp-CH-Scan-d09-49-n800
 OpenBabel11261919183D

 19 18  0  0  0  0  0  0  0  0999 V2000
   -2.0523   -0.1614    0.0071 C   0  0  0  0  0  0  0  0  0  0  0  0
   -3.3463   -0.6384    0.1587 N   0  0  0  0  0  0  0  0  0  0  0  0
   -4.3961   -0.9928    0.2908 N   0  0  0  0  0  0  0  0  0  0  0  0
   -1.8851    1.2148    0.2511 C   0  0  0  0  0  0  0  0  0  0  0  0
   -0.5325    1.5950    0.0795 C   0  0  0  0  0  0  0  0  0  0  0  0
    0.4762    0.7054   -0.2827 C   0  0  0  0  0  0  0  0  0  0  0  0
    0.2081   -0.6632   -0.5074 C   0  0  0  0  0  0  0  0  0  0  0  0
   -1.0811   -1.1285   -0.3634 C   0  0  0  0  0  0  0  0  0  0  0  0
   -3.2539    2.4132    0.6892 H   0  0  0  0  0  0  0  0  0  0  0  0
   -0.2607    2.6369    0.2386 H   0  0  0  0  0  0  0  0  0  0  0  0
    1.4970    1.0628   -0.3985 H   0  0  0  0  0  0  0  0  0  0  0  0
    1.0059   -1.3417   -0.7901 H   0  0  0  0  0  0  0  0  0  0  0  0
   -1.3431   -2.1697   -0.5261 H   0  0  0  0  0  0  0  0  0  0  0  0
   -5.2726    2.8966    0.0307 S   0  0  0  0  0  0  0  0  0  0  0  0
   -3.9969    3.0949    0.9362 O   0  0  0  0  0  0  0  0  0  0  0  0
   -5.3839    1.5062   -0.3873 O   0  0  0  0  0  0  0  0  0  0  0  0
   -6.3775    3.6025    0.6552 O   0  0  0  0  0  0  0  0  0  0  0  0
   -4.8837    3.7080   -1.3381 O   0  0  0  0  0  0  0  0  0  0  0  0
   -5.1370    4.6349   -1.1949 H   0  0  0  0  0  0  0  0  0  0  0  0
  1  2  1  0  0  0  0
  1  4  2  0  0  0  0
  2  3  1  0  0  0  0
  5 10  1  0  0  0  0
  5  4  1  0  0  0  0
  6  5  2  0  0  0  0
  7  8  2  0  0  0  0
  7  6  1  0  0  0  0
  8  1  1  0  0  0  0
  9 15  1  0  0  0  0
 11  6  1  0  0  0  0
 12  7  1  0  0  0  0
 13  8  1  0  0  0  0
 14 17  2  0  0  0  0
 14 15  1  0  0  0  0
 16 14  2  0  0  0  0
 18 19  1  0  0  0  0
 18 14  1  0  0  0  0
M  RAD  3   2   2   3   3   4   2
M  END
