Coordinates from ORCA-job PhN2+~HSO4-_B3LYPG-6-31G_dp-CH-Scan-d09-49-n800
 OpenBabel11261919183D

 19 18  0  0  0  0  0  0  0  0999 V2000
   -2.0136    0.1104   -0.4174 C   0  0  0  0  0  0  0  0  0  0  0  0
   -3.3527   -0.0787   -0.7424 N   0  0  0  0  0  0  0  0  0  0  0  0
   -4.4703    0.0308   -0.8233 N   0  0  0  0  0  0  0  0  0  0  0  0
   -1.6032    1.4122   -0.0944 C   0  0  0  0  0  0  0  0  0  0  0  0
   -0.2582    1.5754    0.2301 C   0  0  0  0  0  0  0  0  0  0  0  0
    0.6141    0.4831    0.2316 C   0  0  0  0  0  0  0  0  0  0  0  0
    0.1673   -0.8032   -0.1054 C   0  0  0  0  0  0  0  0  0  0  0  0
   -1.1617   -1.0065   -0.4473 C   0  0  0  0  0  0  0  0  0  0  0  0
   -2.4361    2.3363   -0.1520 H   0  0  0  0  0  0  0  0  0  0  0  0
    0.1076    2.5645    0.4851 H   0  0  0  0  0  0  0  0  0  0  0  0
    1.6574    0.6310    0.4939 H   0  0  0  0  0  0  0  0  0  0  0  0
    0.8569   -1.6404   -0.1036 H   0  0  0  0  0  0  0  0  0  0  0  0
   -1.5419   -1.9856   -0.7170 H   0  0  0  0  0  0  0  0  0  0  0  0
   -5.0496    3.0176    0.1550 S   0  0  0  0  0  0  0  0  0  0  0  0
   -3.7966    3.3379   -0.5769 O   0  0  0  0  0  0  0  0  0  0  0  0
   -5.0454    1.5936    0.6485 O   0  0  0  0  0  0  0  0  0  0  0  0
   -5.5070    3.9760    1.1639 O   0  0  0  0  0  0  0  0  0  0  0  0
   -6.1837    3.0547   -1.0515 O   0  0  0  0  0  0  0  0  0  0  0  0
   -6.9988    3.3663   -0.6280 H   0  0  0  0  0  0  0  0  0  0  0  0
  1  4  1  0  0  0  0
  2  1  1  0  0  0  0
  3  2  1  0  0  0  0
  4  5  2  0  0  0  0
  5  6  1  0  0  0  0
  5 10  1  0  0  0  0
  6 11  1  0  0  0  0
  7 12  1  0  0  0  0
  7  6  2  0  0  0  0
  8  1  2  0  0  0  0
  8  7  1  0  0  0  0
  9  4  1  0  0  0  0
 13  8  1  0  0  0  0
 14 16  2  0  0  0  0
 14 17  1  0  0  0  0
 15 14  2  0  0  0  0
 18 19  1  0  0  0  0
 18 14  1  0  0  0  0
M  RAD  3   2   2   3   3  17   2
M  END
