Coordinates from ORCA-job PhN2+~HSO4-_B3LYPG-6-31G_dp-CH-Scan-d09-49-n800
 OpenBabel11261919183D

 19 18  0  0  0  0  0  0  0  0999 V2000
   -2.0141    0.0819   -0.4125 C   0  0  0  0  0  0  0  0  0  0  0  0
   -3.3515   -0.1281   -0.7251 N   0  0  0  0  0  0  0  0  0  0  0  0
   -4.4673   -0.0646   -0.8337 N   0  0  0  0  0  0  0  0  0  0  0  0
   -1.6286    1.3985   -0.1187 C   0  0  0  0  0  0  0  0  0  0  0  0
   -0.2839    1.5841    0.2002 C   0  0  0  0  0  0  0  0  0  0  0  0
    0.6039    0.5051    0.2222 C   0  0  0  0  0  0  0  0  0  0  0  0
    0.1766   -0.7960   -0.0865 C   0  0  0  0  0  0  0  0  0  0  0  0
   -1.1491   -1.0268   -0.4195 C   0  0  0  0  0  0  0  0  0  0  0  0
   -2.5062    2.3348   -0.1930 H   0  0  0  0  0  0  0  0  0  0  0  0
    0.0698    2.5827    0.4353 H   0  0  0  0  0  0  0  0  0  0  0  0
    1.6455    0.6734    0.4797 H   0  0  0  0  0  0  0  0  0  0  0  0
    0.8792   -1.6220   -0.0681 H   0  0  0  0  0  0  0  0  0  0  0  0
   -1.5163   -2.0170   -0.6660 H   0  0  0  0  0  0  0  0  0  0  0  0
   -5.0449    3.0092    0.1731 S   0  0  0  0  0  0  0  0  0  0  0  0
   -3.7611    3.3278   -0.5181 O   0  0  0  0  0  0  0  0  0  0  0  0
   -5.0814    1.5776    0.6205 O   0  0  0  0  0  0  0  0  0  0  0  0
   -5.5030    3.9615    1.1876 O   0  0  0  0  0  0  0  0  0  0  0  0
   -6.1408    3.1114   -1.0650 O   0  0  0  0  0  0  0  0  0  0  0  0
   -6.9423    3.4818   -0.6638 H   0  0  0  0  0  0  0  0  0  0  0  0
  1  4  1  0  0  0  0
  2  1  1  0  0  0  0
  3  2  1  0  0  0  0
  4  5  2  0  0  0  0
  5  6  1  0  0  0  0
  5 10  1  0  0  0  0
  6 11  1  0  0  0  0
  7 12  1  0  0  0  0
  7  6  2  0  0  0  0
  8  1  2  0  0  0  0
  8  7  1  0  0  0  0
  9  4  1  0  0  0  0
 13  8  1  0  0  0  0
 14 16  2  0  0  0  0
 14 17  1  0  0  0  0
 15 14  2  0  0  0  0
 18 19  1  0  0  0  0
 18 14  1  0  0  0  0
M  RAD  3   2   2   3   3  17   2
M  END
