Coordinates from ORCA-job PhN2+~HSO4-_B3LYPG-6-31G_dp-CH-Scan-d09-49-n800
 OpenBabel11261919183D

 19 18  0  0  0  0  0  0  0  0999 V2000
   -1.7463   -0.2489   -0.0544 C   0  0  0  0  0  0  0  0  0  0  0  0
   -3.0916   -0.5898    0.0640 N   0  0  0  0  0  0  0  0  0  0  0  0
   -4.1800   -0.8190    0.1795 N   0  0  0  0  0  0  0  0  0  0  0  0
   -1.4762    1.0810    0.3098 C   0  0  0  0  0  0  0  0  0  0  0  0
   -0.0828    1.3349    0.1639 C   0  0  0  0  0  0  0  0  0  0  0  0
    0.8386    0.3889   -0.2744 C   0  0  0  0  0  0  0  0  0  0  0  0
    0.4465   -0.9292   -0.6149 C   0  0  0  0  0  0  0  0  0  0  0  0
   -0.8803   -1.2814   -0.5092 C   0  0  0  0  0  0  0  0  0  0  0  0
   -3.8997    3.2839    1.0958 H   0  0  0  0  0  0  0  0  0  0  0  0
    0.2966    2.3276    0.4085 H   0  0  0  0  0  0  0  0  0  0  0  0
    1.8907    0.6552   -0.3633 H   0  0  0  0  0  0  0  0  0  0  0  0
    1.1816   -1.6518   -0.9540 H   0  0  0  0  0  0  0  0  0  0  0  0
   -1.2404   -2.2762   -0.7569 H   0  0  0  0  0  0  0  0  0  0  0  0
   -5.7881    3.1399    0.0971 S   0  0  0  0  0  0  0  0  0  0  0  0
   -4.7211    3.8083    1.1099 O   0  0  0  0  0  0  0  0  0  0  0  0
   -5.5814    1.7075    0.0509 O   0  0  0  0  0  0  0  0  0  0  0  0
   -7.0585    3.7607    0.4052 O   0  0  0  0  0  0  0  0  0  0  0  0
   -5.2786    3.6953   -1.3451 O   0  0  0  0  0  0  0  0  0  0  0  0
   -5.6448    4.5883   -1.4634 H   0  0  0  0  0  0  0  0  0  0  0  0
  1  2  1  0  0  0  0
  1  4  2  0  0  0  0
  2  3  1  0  0  0  0
  5  4  1  0  0  0  0
  5 10  1  0  0  0  0
  6  5  2  0  0  0  0
  7  8  2  0  0  0  0
  7  6  1  0  0  0  0
  8  1  1  0  0  0  0
  9 15  1  0  0  0  0
 11  6  1  0  0  0  0
 12  7  1  0  0  0  0
 13  8  1  0  0  0  0
 14 17  2  0  0  0  0
 14 15  1  0  0  0  0
 16 14  2  0  0  0  0
 18 14  1  0  0  0  0
 19 18  1  0  0  0  0
M  RAD  3   2   2   3   3   4   2
M  END
