Coordinates from ORCA-job PhN2+~HSO4-_B3LYPG-6-31G_dp-CH-Scan-d09-49-n800
 OpenBabel11261919183D

 19 18  0  0  0  0  0  0  0  0999 V2000
   -1.7316   -0.2670    0.8437 C   0  0  0  0  0  0  0  0  0  0  0  0
   -2.8526   -0.9059    1.3819 N   0  0  0  0  0  0  0  0  0  0  0  0
   -3.7011   -1.4349    1.8822 N   0  0  0  0  0  0  0  0  0  0  0  0
   -0.6129   -0.3747    1.6813 C   0  0  0  0  0  0  0  0  0  0  0  0
    0.4774    0.3329    1.0867 C   0  0  0  0  0  0  0  0  0  0  0  0
    0.3972    1.0161   -0.1211 C   0  0  0  0  0  0  0  0  0  0  0  0
   -0.7959    1.0303   -0.8918 C   0  0  0  0  0  0  0  0  0  0  0  0
   -1.9088    0.3678   -0.4172 C   0  0  0  0  0  0  0  0  0  0  0  0
   -3.0722    2.9141   -0.4991 H   0  0  0  0  0  0  0  0  0  0  0  0
    1.4361    0.3474    1.6072 H   0  0  0  0  0  0  0  0  0  0  0  0
    1.2674    1.5451   -0.5065 H   0  0  0  0  0  0  0  0  0  0  0  0
   -0.8184    1.5269   -1.8572 H   0  0  0  0  0  0  0  0  0  0  0  0
   -2.8407    0.3057   -0.9716 H   0  0  0  0  0  0  0  0  0  0  0  0
   -5.1897    2.5696   -0.5071 S   0  0  0  0  0  0  0  0  0  0  0  0
   -3.8575    3.4847   -0.5950 O   0  0  0  0  0  0  0  0  0  0  0  0
   -4.9240    1.4192    0.3330 O   0  0  0  0  0  0  0  0  0  0  0  0
   -6.2863    3.4882   -0.3024 O   0  0  0  0  0  0  0  0  0  0  0  0
   -5.2785    1.9746   -2.0199 O   0  0  0  0  0  0  0  0  0  0  0  0
   -5.7234    2.6352   -2.5784 H   0  0  0  0  0  0  0  0  0  0  0  0
  1  2  1  0  0  0  0
  1  4  2  0  0  0  0
  2  3  1  0  0  0  0
  5 10  1  0  0  0  0
  5  4  1  0  0  0  0
  6  5  2  0  0  0  0
  7  8  2  0  0  0  0
  7  6  1  0  0  0  0
  8  1  1  0  0  0  0
 11  6  1  0  0  0  0
 12  7  1  0  0  0  0
 13  8  1  0  0  0  0
 14 17  2  0  0  0  0
 14 16  2  0  0  0  0
 15 14  1  0  0  0  0
 15  9  1  0  0  0  0
 18 14  1  0  0  0  0
 19 18  1  0  0  0  0
M  RAD  3   2   2   3   3   4   2
M  END
