Coordinates from ORCA-job PhN2+~HSO4-_B3LYPG-6-31G_dp-CH-Scan-d09-49-n800
 OpenBabel11261919183D

 19 18  0  0  0  0  0  0  0  0999 V2000
   -1.6958   -0.2333    0.8542 C   0  0  0  0  0  0  0  0  0  0  0  0
   -2.8450   -0.8182    1.3939 N   0  0  0  0  0  0  0  0  0  0  0  0
   -3.7162   -1.3084    1.8953 N   0  0  0  0  0  0  0  0  0  0  0  0
   -0.5815   -0.4024    1.6876 C   0  0  0  0  0  0  0  0  0  0  0  0
    0.5439    0.2417    1.0882 C   0  0  0  0  0  0  0  0  0  0  0  0
    0.4979    0.9226   -0.1230 C   0  0  0  0  0  0  0  0  0  0  0  0
   -0.6962    1.0069   -0.8859 C   0  0  0  0  0  0  0  0  0  0  0  0
   -1.8434    0.4130   -0.4043 C   0  0  0  0  0  0  0  0  0  0  0  0
   -3.2223    3.0903   -0.4555 H   0  0  0  0  0  0  0  0  0  0  0  0
    1.5037    0.2050    1.6057 H   0  0  0  0  0  0  0  0  0  0  0  0
    1.3959    1.3978   -0.5147 H   0  0  0  0  0  0  0  0  0  0  0  0
   -0.6967    1.5100   -1.8479 H   0  0  0  0  0  0  0  0  0  0  0  0
   -2.7824    0.4105   -0.9500 H   0  0  0  0  0  0  0  0  0  0  0  0
   -5.2966    2.5526   -0.5296 S   0  0  0  0  0  0  0  0  0  0  0  0
   -4.0519    3.5890   -0.5662 O   0  0  0  0  0  0  0  0  0  0  0  0
   -4.9344    1.4070    0.2808 O   0  0  0  0  0  0  0  0  0  0  0  0
   -6.4759    3.3593   -0.3150 O   0  0  0  0  0  0  0  0  0  0  0  0
   -5.3082    2.0009   -2.0598 O   0  0  0  0  0  0  0  0  0  0  0  0
   -5.8103    2.6310   -2.6051 H   0  0  0  0  0  0  0  0  0  0  0  0
  1  2  1  0  0  0  0
  1  4  2  0  0  0  0
  2  3  1  0  0  0  0
  5 10  1  0  0  0  0
  5  4  1  0  0  0  0
  6  5  2  0  0  0  0
  7  8  2  0  0  0  0
  7  6  1  0  0  0  0
  8  1  1  0  0  0  0
 11  6  1  0  0  0  0
 12  7  1  0  0  0  0
 13  8  1  0  0  0  0
 14 17  2  0  0  0  0
 14 16  2  0  0  0  0
 15 14  1  0  0  0  0
 15  9  1  0  0  0  0
 18 14  1  0  0  0  0
 19 18  1  0  0  0  0
M  RAD  3   2   2   3   3   4   2
M  END
