Coordinates from ORCA-job PhN2+~HSO4-_B3LYPG-6-31G_dp-CH-Scan-d09-49-n800
 OpenBabel11261919183D

 19 18  0  0  0  0  0  0  0  0999 V2000
   -2.0462   -0.1635    0.0027 C   0  0  0  0  0  0  0  0  0  0  0  0
   -3.3413   -0.6388    0.1509 N   0  0  0  0  0  0  0  0  0  0  0  0
   -4.3921   -0.9915    0.2803 N   0  0  0  0  0  0  0  0  0  0  0  0
   -1.8786    1.2122    0.2492 C   0  0  0  0  0  0  0  0  0  0  0  0
   -0.5247    1.5904    0.0806 C   0  0  0  0  0  0  0  0  0  0  0  0
    0.4835    0.7001   -0.2807 C   0  0  0  0  0  0  0  0  0  0  0  0
    0.2143   -0.6680   -0.5081 C   0  0  0  0  0  0  0  0  0  0  0  0
   -1.0758   -1.1318   -0.3674 C   0  0  0  0  0  0  0  0  0  0  0  0
   -3.2678    2.4312    0.6951 H   0  0  0  0  0  0  0  0  0  0  0  0
   -0.2512    2.6316    0.2419 H   0  0  0  0  0  0  0  0  0  0  0  0
    1.5051    1.0562   -0.3938 H   0  0  0  0  0  0  0  0  0  0  0  0
    1.0118   -1.3471   -0.7901 H   0  0  0  0  0  0  0  0  0  0  0  0
   -1.3389   -2.1724   -0.5322 H   0  0  0  0  0  0  0  0  0  0  0  0
   -5.2855    2.9030    0.0364 S   0  0  0  0  0  0  0  0  0  0  0  0
   -4.0078    3.1093    0.9404 O   0  0  0  0  0  0  0  0  0  0  0  0
   -5.3996    1.5086   -0.3659 O   0  0  0  0  0  0  0  0  0  0  0  0
   -6.3865    3.6188    0.6558 O   0  0  0  0  0  0  0  0  0  0  0  0
   -4.8945    3.6983   -1.3405 O   0  0  0  0  0  0  0  0  0  0  0  0
   -5.1398    4.6287   -1.2059 H   0  0  0  0  0  0  0  0  0  0  0  0
  1  2  1  0  0  0  0
  1  4  2  0  0  0  0
  2  3  1  0  0  0  0
  5 10  1  0  0  0  0
  5  4  1  0  0  0  0
  6  5  2  0  0  0  0
  7  8  2  0  0  0  0
  7  6  1  0  0  0  0
  8  1  1  0  0  0  0
  9 15  1  0  0  0  0
 11  6  1  0  0  0  0
 12  7  1  0  0  0  0
 13  8  1  0  0  0  0
 14 17  2  0  0  0  0
 14 15  1  0  0  0  0
 16 14  2  0  0  0  0
 18 19  1  0  0  0  0
 18 14  1  0  0  0  0
M  RAD  3   2   2   3   3   4   2
M  END
