Coordinates from ORCA-job PhN2+~HSO4-_B3LYPG-6-31G_dp-CH-Scan-d09-49-n800
 OpenBabel11261919183D

 19 18  0  0  0  0  0  0  0  0999 V2000
   -2.0680   -0.0298   -0.3391 C   0  0  0  0  0  0  0  0  0  0  0  0
   -3.3858   -0.3985   -0.5604 N   0  0  0  0  0  0  0  0  0  0  0  0
   -4.4554   -0.6624   -0.7301 N   0  0  0  0  0  0  0  0  0  0  0  0
   -1.8303    1.3330   -0.0849 C   0  0  0  0  0  0  0  0  0  0  0  0
   -0.4642    1.6066    0.1219 C   0  0  0  0  0  0  0  0  0  0  0  0
    0.5211    0.6220    0.0746 C   0  0  0  0  0  0  0  0  0  0  0  0
    0.2002   -0.7253   -0.1887 C   0  0  0  0  0  0  0  0  0  0  0  0
   -1.1163   -1.0778   -0.4039 C   0  0  0  0  0  0  0  0  0  0  0  0
   -2.8844    2.4256    0.0035 H   0  0  0  0  0  0  0  0  0  0  0  0
   -0.1676    2.6316    0.3307 H   0  0  0  0  0  0  0  0  0  0  0  0
    1.5609    0.8903    0.2441 H   0  0  0  0  0  0  0  0  0  0  0  0
    0.9780   -1.4805   -0.2222 H   0  0  0  0  0  0  0  0  0  0  0  0
   -1.4141   -2.1010   -0.6107 H   0  0  0  0  0  0  0  0  0  0  0  0
   -5.0823    2.9583    0.3375 S   0  0  0  0  0  0  0  0  0  0  0  0
   -3.6070    3.3476    0.0955 O   0  0  0  0  0  0  0  0  0  0  0  0
   -5.1930    1.5215    0.6041 O   0  0  0  0  0  0  0  0  0  0  0  0
   -5.7402    3.9191    1.2138 O   0  0  0  0  0  0  0  0  0  0  0  0
   -5.7693    3.1413   -1.1512 O   0  0  0  0  0  0  0  0  0  0  0  0
   -6.0979    4.0538   -1.1858 H   0  0  0  0  0  0  0  0  0  0  0  0
  1  4  1  0  0  0  0
  2  1  1  0  0  0  0
  3  2  1  0  0  0  0
  4  5  2  0  0  0  0
  5 10  1  0  0  0  0
  6  5  1  0  0  0  0
  6 11  1  0  0  0  0
  7  6  2  0  0  0  0
  8  1  2  0  0  0  0
  8  7  1  0  0  0  0
  9 15  1  0  0  0  0
 12  7  1  0  0  0  0
 13  8  1  0  0  0  0
 14 16  2  0  0  0  0
 14 17  2  0  0  0  0
 15 14  1  0  0  0  0
 18 14  1  0  0  0  0
 19 18  1  0  0  0  0
M  RAD  3   2   2   3   3   4   2
M  END
