Coordinates from ORCA-job PhN2+~HSO4-_B3LYPG-6-31G_dp-CH-Scan-d09-49-n800
 OpenBabel11261919183D

 19 18  0  0  0  0  0  0  0  0999 V2000
   -1.8730   -0.2097   -0.0573 C   0  0  0  0  0  0  0  0  0  0  0  0
   -3.2010   -0.6077    0.0492 N   0  0  0  0  0  0  0  0  0  0  0  0
   -4.2765   -0.8936    0.1505 N   0  0  0  0  0  0  0  0  0  0  0  0
   -1.6503    1.1408    0.2652 C   0  0  0  0  0  0  0  0  0  0  0  0
   -0.2687    1.4461    0.1334 C   0  0  0  0  0  0  0  0  0  0  0  0
    0.6950    0.5218   -0.2593 C   0  0  0  0  0  0  0  0  0  0  0  0
    0.3575   -0.8191   -0.5619 C   0  0  0  0  0  0  0  0  0  0  0  0
   -0.9569   -1.2180   -0.4644 C   0  0  0  0  0  0  0  0  0  0  0  0
   -3.6181    2.9423    0.9211 H   0  0  0  0  0  0  0  0  0  0  0  0
    0.0662    2.4599    0.3513 H   0  0  0  0  0  0  0  0  0  0  0  0
    1.7371    0.8255   -0.3401 H   0  0  0  0  0  0  0  0  0  0  0  0
    1.1238   -1.5242   -0.8667 H   0  0  0  0  0  0  0  0  0  0  0  0
   -1.2742   -2.2332   -0.6857 H   0  0  0  0  0  0  0  0  0  0  0  0
   -5.5967    3.0521    0.1083 S   0  0  0  0  0  0  0  0  0  0  0  0
   -4.3863    3.5409    1.0448 O   0  0  0  0  0  0  0  0  0  0  0  0
   -5.5789    1.6076   -0.0110 O   0  0  0  0  0  0  0  0  0  0  0  0
   -6.7592    3.8009    0.5387 O   0  0  0  0  0  0  0  0  0  0  0  0
   -5.1451    3.6046   -1.3568 O   0  0  0  0  0  0  0  0  0  0  0  0
   -5.4102    4.5384   -1.4106 H   0  0  0  0  0  0  0  0  0  0  0  0
  1  2  1  0  0  0  0
  1  4  2  0  0  0  0
  2  3  1  0  0  0  0
  5  4  1  0  0  0  0
  5 10  1  0  0  0  0
  6  5  2  0  0  0  0
  7  8  2  0  0  0  0
  7  6  1  0  0  0  0
  8  1  1  0  0  0  0
  9 15  1  0  0  0  0
 11  6  1  0  0  0  0
 12  7  1  0  0  0  0
 13  8  1  0  0  0  0
 14 17  2  0  0  0  0
 14 15  1  0  0  0  0
 16 14  2  0  0  0  0
 18 14  1  0  0  0  0
 19 18  1  0  0  0  0
M  RAD  3   2   2   3   3   4   2
M  END
