Coordinates from ORCA-job PhN2+~HSO4-_B3LYPG-6-31G_dp-CH-Scan-d09-49-n800
 OpenBabel11261919183D

 19 18  0  0  0  0  0  0  0  0999 V2000
   -1.7889   -0.2366   -0.0513 C   0  0  0  0  0  0  0  0  0  0  0  0
   -3.1280   -0.5979    0.0672 N   0  0  0  0  0  0  0  0  0  0  0  0
   -4.2117   -0.8475    0.1823 N   0  0  0  0  0  0  0  0  0  0  0  0
   -1.5345    1.0997    0.3023 C   0  0  0  0  0  0  0  0  0  0  0  0
   -0.1453    1.3717    0.1562 C   0  0  0  0  0  0  0  0  0  0  0  0
    0.7893    0.4346   -0.2736 C   0  0  0  0  0  0  0  0  0  0  0  0
    0.4149   -0.8909   -0.6041 C   0  0  0  0  0  0  0  0  0  0  0  0
   -0.9073   -1.2598   -0.4968 C   0  0  0  0  0  0  0  0  0  0  0  0
   -3.8113    3.1770    1.0556 H   0  0  0  0  0  0  0  0  0  0  0  0
    0.2199    2.3712    0.3934 H   0  0  0  0  0  0  0  0  0  0  0  0
    1.8377    0.7142   -0.3633 H   0  0  0  0  0  0  0  0  0  0  0  0
    1.1597   -1.6064   -0.9368 H   0  0  0  0  0  0  0  0  0  0  0  0
   -1.2535   -2.2612   -0.7374 H   0  0  0  0  0  0  0  0  0  0  0  0
   -5.7242    3.1095    0.0966 S   0  0  0  0  0  0  0  0  0  0  0  0
   -4.6181    3.7248    1.0974 O   0  0  0  0  0  0  0  0  0  0  0  0
   -5.5755    1.6704    0.0298 O   0  0  0  0  0  0  0  0  0  0  0  0
   -6.9660    3.7735    0.4315 O   0  0  0  0  0  0  0  0  0  0  0  0
   -5.2190    3.6609   -1.3492 O   0  0  0  0  0  0  0  0  0  0  0  0
   -5.5538    4.5681   -1.4512 H   0  0  0  0  0  0  0  0  0  0  0  0
  1  2  1  0  0  0  0
  1  4  2  0  0  0  0
  2  3  1  0  0  0  0
  5  4  1  0  0  0  0
  5 10  1  0  0  0  0
  6  5  2  0  0  0  0
  7  8  2  0  0  0  0
  7  6  1  0  0  0  0
  8  1  1  0  0  0  0
  9 15  1  0  0  0  0
 11  6  1  0  0  0  0
 12  7  1  0  0  0  0
 13  8  1  0  0  0  0
 14 17  2  0  0  0  0
 14 15  1  0  0  0  0
 16 14  2  0  0  0  0
 18 14  1  0  0  0  0
 19 18  1  0  0  0  0
M  RAD  3   2   2   3   3   4   2
M  END
