Coordinates from ORCA-job PhN2+~HSO4-_B3LYPG-6-31G_dp-CH-Scan-d09-49-n800
 OpenBabel11261919183D

 19 18  0  0  0  0  0  0  0  0999 V2000
   -1.7227   -0.2594    0.8473 C   0  0  0  0  0  0  0  0  0  0  0  0
   -2.8501   -0.8859    1.3867 N   0  0  0  0  0  0  0  0  0  0  0  0
   -3.7034   -1.4064    1.8878 N   0  0  0  0  0  0  0  0  0  0  0  0
   -0.6035   -0.3834    1.6819 C   0  0  0  0  0  0  0  0  0  0  0  0
    0.4950    0.3094    1.0854 C   0  0  0  0  0  0  0  0  0  0  0  0
    0.4215    0.9937   -0.1224 C   0  0  0  0  0  0  0  0  0  0  0  0
   -0.7735    1.0263   -0.8891 C   0  0  0  0  0  0  0  0  0  0  0  0
   -1.8945    0.3801   -0.4119 C   0  0  0  0  0  0  0  0  0  0  0  0
   -3.1079    2.9575   -0.4863 H   0  0  0  0  0  0  0  0  0  0  0  0
    1.4550    0.3104    1.6036 H   0  0  0  0  0  0  0  0  0  0  0  0
    1.2984    1.5098   -0.5100 H   0  0  0  0  0  0  0  0  0  0  0  0
   -0.7922    1.5259   -1.8531 H   0  0  0  0  0  0  0  0  0  0  0  0
   -2.8294    0.3333   -0.9629 H   0  0  0  0  0  0  0  0  0  0  0  0
   -5.2168    2.5659   -0.5138 S   0  0  0  0  0  0  0  0  0  0  0  0
   -3.9042    3.5111   -0.5866 O   0  0  0  0  0  0  0  0  0  0  0  0
   -4.9301    1.4164    0.3208 O   0  0  0  0  0  0  0  0  0  0  0  0
   -6.3347    3.4585   -0.3102 O   0  0  0  0  0  0  0  0  0  0  0  0
   -5.2824    1.9794   -2.0307 O   0  0  0  0  0  0  0  0  0  0  0  0
   -5.7399    2.6328   -2.5876 H   0  0  0  0  0  0  0  0  0  0  0  0
  1  2  1  0  0  0  0
  1  4  2  0  0  0  0
  2  3  1  0  0  0  0
  5 10  1  0  0  0  0
  5  4  1  0  0  0  0
  6  5  2  0  0  0  0
  7  8  2  0  0  0  0
  7  6  1  0  0  0  0
  8  1  1  0  0  0  0
 11  6  1  0  0  0  0
 12  7  1  0  0  0  0
 13  8  1  0  0  0  0
 14 17  2  0  0  0  0
 14 16  2  0  0  0  0
 15 14  1  0  0  0  0
 15  9  1  0  0  0  0
 18 14  1  0  0  0  0
 19 18  1  0  0  0  0
M  RAD  3   2   2   3   3   4   2
M  END
