Coordinates from ORCA-job PhN2+~HSO4-_B3LYPG-6-31G_dp-CH-Scan-d09-49-n800
 OpenBabel11261919183D

 19 18  0  0  0  0  0  0  0  0999 V2000
   -1.7026   -0.2607   -0.0508 C   0  0  0  0  0  0  0  0  0  0  0  0
   -3.0533   -0.5803    0.0737 N   0  0  0  0  0  0  0  0  0  0  0  0
   -4.1456   -0.7878    0.1953 N   0  0  0  0  0  0  0  0  0  0  0  0
   -1.4130    1.0600    0.3304 C   0  0  0  0  0  0  0  0  0  0  0  0
   -0.0162    1.2946    0.1782 C   0  0  0  0  0  0  0  0  0  0  0  0
    0.8882    0.3416   -0.2796 C   0  0  0  0  0  0  0  0  0  0  0  0
    0.4746   -0.9662   -0.6359 C   0  0  0  0  0  0  0  0  0  0  0  0
   -0.8564   -1.3003   -0.5259 C   0  0  0  0  0  0  0  0  0  0  0  0
   -4.0028    3.4049    1.1492 H   0  0  0  0  0  0  0  0  0  0  0  0
    0.3801    2.2781    0.4338 H   0  0  0  0  0  0  0  0  0  0  0  0
    1.9436    0.5935   -0.3723 H   0  0  0  0  0  0  0  0  0  0  0  0
    1.1970   -1.6945   -0.9897 H   0  0  0  0  0  0  0  0  0  0  0  0
   -1.2330   -2.2863   -0.7846 H   0  0  0  0  0  0  0  0  0  0  0  0
   -5.8502    3.1678    0.0926 S   0  0  0  0  0  0  0  0  0  0  0  0
   -4.8422    3.8982    1.1259 O   0  0  0  0  0  0  0  0  0  0  0  0
   -5.5741    1.7471    0.0738 O   0  0  0  0  0  0  0  0  0  0  0  0
   -7.1552    3.7337    0.3582 O   0  0  0  0  0  0  0  0  0  0  0  0
   -5.3257    3.7292   -1.3413 O   0  0  0  0  0  0  0  0  0  0  0  0
   -5.7288    4.6028   -1.4825 H   0  0  0  0  0  0  0  0  0  0  0  0
  1  2  1  0  0  0  0
  1  4  2  0  0  0  0
  2  3  1  0  0  0  0
  5  4  1  0  0  0  0
  5 10  1  0  0  0  0
  6  5  2  0  0  0  0
  7  8  2  0  0  0  0
  7  6  1  0  0  0  0
  8  1  1  0  0  0  0
 11  6  1  0  0  0  0
 12  7  1  0  0  0  0
 13  8  1  0  0  0  0
 14 17  2  0  0  0  0
 14 15  1  0  0  0  0
 15  9  1  0  0  0  0
 16 14  2  0  0  0  0
 18 14  1  0  0  0  0
 19 18  1  0  0  0  0
M  RAD  3   2   2   3   3   4   2
M  END
