Coordinates from ORCA-job PhN2+~HSO4-_B3LYPG-6-31G_dp-CH-Scan-d09-49-n800
 OpenBabel11261919183D

 19 18  0  0  0  0  0  0  0  0999 V2000
   -1.8301   -0.2231   -0.0514 C   0  0  0  0  0  0  0  0  0  0  0  0
   -3.1636   -0.6029    0.0637 N   0  0  0  0  0  0  0  0  0  0  0  0
   -4.2431   -0.8710    0.1739 N   0  0  0  0  0  0  0  0  0  0  0  0
   -1.5906    1.1196    0.2894 C   0  0  0  0  0  0  0  0  0  0  0  0
   -0.2053    1.4081    0.1470 C   0  0  0  0  0  0  0  0  0  0  0  0
    0.7425    0.4780   -0.2694 C   0  0  0  0  0  0  0  0  0  0  0  0
    0.3854   -0.8546   -0.5882 C   0  0  0  0  0  0  0  0  0  0  0  0
   -0.9328   -1.2385   -0.4829 C   0  0  0  0  0  0  0  0  0  0  0  0
   -3.7211    3.0664    1.0017 H   0  0  0  0  0  0  0  0  0  0  0  0
    0.1459    2.4143    0.3759 H   0  0  0  0  0  0  0  0  0  0  0  0
    1.7877    0.7696   -0.3572 H   0  0  0  0  0  0  0  0  0  0  0  0
    1.1399   -1.5645   -0.9110 H   0  0  0  0  0  0  0  0  0  0  0  0
   -1.2655   -2.2463   -0.7153 H   0  0  0  0  0  0  0  0  0  0  0  0
   -5.6626    3.0804    0.1001 S   0  0  0  0  0  0  0  0  0  0  0  0
   -4.5111    3.6379    1.0786 O   0  0  0  0  0  0  0  0  0  0  0  0
   -5.5761    1.6369    0.0113 O   0  0  0  0  0  0  0  0  0  0  0  0
   -6.8700    3.7879    0.4713 O   0  0  0  0  0  0  0  0  0  0  0  0
   -5.1720    3.6282   -1.3530 O   0  0  0  0  0  0  0  0  0  0  0  0
   -5.4729    4.5490   -1.4357 H   0  0  0  0  0  0  0  0  0  0  0  0
  1  2  1  0  0  0  0
  1  4  2  0  0  0  0
  2  3  1  0  0  0  0
  5  4  1  0  0  0  0
  5 10  1  0  0  0  0
  6  5  2  0  0  0  0
  7  8  2  0  0  0  0
  7  6  1  0  0  0  0
  8  1  1  0  0  0  0
  9 15  1  0  0  0  0
 11  6  1  0  0  0  0
 12  7  1  0  0  0  0
 13  8  1  0  0  0  0
 14 17  2  0  0  0  0
 14 15  1  0  0  0  0
 16 14  2  0  0  0  0
 18 14  1  0  0  0  0
 19 18  1  0  0  0  0
M  RAD  3   2   2   3   3   4   2
M  END
