Coordinates from ORCA-job PhN2+~HSO4-_B3LYPG-6-31G_dp-CH-Scan-d09-49-n800
 OpenBabel11261919183D

 19 18  0  0  0  0  0  0  0  0999 V2000
   -1.8477   -0.2177   -0.0538 C   0  0  0  0  0  0  0  0  0  0  0  0
   -3.1790   -0.6050    0.0578 N   0  0  0  0  0  0  0  0  0  0  0  0
   -4.2568   -0.8806    0.1639 N   0  0  0  0  0  0  0  0  0  0  0  0
   -1.6150    1.1281    0.2803 C   0  0  0  0  0  0  0  0  0  0  0  0
   -0.2312    1.4235    0.1420 C   0  0  0  0  0  0  0  0  0  0  0  0
    0.7230    0.4960   -0.2654 C   0  0  0  0  0  0  0  0  0  0  0  0
    0.3739   -0.8399   -0.5783 C   0  0  0  0  0  0  0  0  0  0  0  0
   -0.9427   -1.2300   -0.4761 C   0  0  0  0  0  0  0  0  0  0  0  0
   -3.6792    3.0177    0.9712 H   0  0  0  0  0  0  0  0  0  0  0  0
    0.1134    2.4327    0.3670 H   0  0  0  0  0  0  0  0  0  0  0  0
    1.7670    0.7925   -0.3504 H   0  0  0  0  0  0  0  0  0  0  0  0
    1.1332   -1.5477   -0.8943 H   0  0  0  0  0  0  0  0  0  0  0  0
   -1.2692   -2.2408   -0.7045 H   0  0  0  0  0  0  0  0  0  0  0  0
   -5.6360    3.0690    0.1038 S   0  0  0  0  0  0  0  0  0  0  0  0
   -4.4608    3.6002    1.0661 O   0  0  0  0  0  0  0  0  0  0  0  0
   -5.5777    1.6245    0.0049 O   0  0  0  0  0  0  0  0  0  0  0  0
   -6.8257    3.7948    0.4968 O   0  0  0  0  0  0  0  0  0  0  0  0
   -5.1594    3.6158   -1.3547 O   0  0  0  0  0  0  0  0  0  0  0  0
   -5.4457    4.5421   -1.4275 H   0  0  0  0  0  0  0  0  0  0  0  0
  1  2  1  0  0  0  0
  1  4  2  0  0  0  0
  2  3  1  0  0  0  0
  5  4  1  0  0  0  0
  5 10  1  0  0  0  0
  6  5  2  0  0  0  0
  7  8  2  0  0  0  0
  7  6  1  0  0  0  0
  8  1  1  0  0  0  0
  9 15  1  0  0  0  0
 11  6  1  0  0  0  0
 12  7  1  0  0  0  0
 13  8  1  0  0  0  0
 14 17  2  0  0  0  0
 14 15  1  0  0  0  0
 16 14  2  0  0  0  0
 18 14  1  0  0  0  0
 19 18  1  0  0  0  0
M  RAD  3   2   2   3   3   4   2
M  END
