Coordinates from ORCA-job PhN2+~HSO4-_B3LYPG-6-31G_dp-CH-Scan-d09-49-n800
 OpenBabel11261919183D

 19 18  0  0  0  0  0  0  0  0999 V2000
   -2.0572    0.0225   -0.3810 C   0  0  0  0  0  0  0  0  0  0  0  0
   -3.3854   -0.2728   -0.6426 N   0  0  0  0  0  0  0  0  0  0  0  0
   -4.4825   -0.3990   -0.7993 N   0  0  0  0  0  0  0  0  0  0  0  0
   -1.7549    1.3670   -0.1085 C   0  0  0  0  0  0  0  0  0  0  0  0
   -0.4016    1.6100    0.1553 C   0  0  0  0  0  0  0  0  0  0  0  0
    0.5457    0.5853    0.1421 C   0  0  0  0  0  0  0  0  0  0  0  0
    0.1824   -0.7438   -0.1429 C   0  0  0  0  0  0  0  0  0  0  0  0
   -1.1386   -1.0488   -0.4152 C   0  0  0  0  0  0  0  0  0  0  0  0
   -2.7126    2.3334   -0.1120 H   0  0  0  0  0  0  0  0  0  0  0  0
   -0.0881    2.6256    0.3782 H   0  0  0  0  0  0  0  0  0  0  0  0
    1.5865    0.8129    0.3554 H   0  0  0  0  0  0  0  0  0  0  0  0
    0.9313   -1.5283   -0.1499 H   0  0  0  0  0  0  0  0  0  0  0  0
   -1.4627   -2.0595   -0.6394 H   0  0  0  0  0  0  0  0  0  0  0  0
   -5.0499    2.9535    0.3098 S   0  0  0  0  0  0  0  0  0  0  0  0
   -3.6652    3.3480   -0.1719 O   0  0  0  0  0  0  0  0  0  0  0  0
   -5.0923    1.5232    0.6799 O   0  0  0  0  0  0  0  0  0  0  0  0
   -5.6370    3.9218    1.2349 O   0  0  0  0  0  0  0  0  0  0  0  0
   -5.9798    3.0148   -1.0609 O   0  0  0  0  0  0  0  0  0  0  0  0
   -6.3536    3.9095   -1.0831 H   0  0  0  0  0  0  0  0  0  0  0  0
  1  4  1  0  0  0  0
  2  1  1  0  0  0  0
  3  2  1  0  0  0  0
  4  5  2  0  0  0  0
  5 10  1  0  0  0  0
  6  5  1  0  0  0  0
  6 11  1  0  0  0  0
  7  6  2  0  0  0  0
  8  1  2  0  0  0  0
  8  7  1  0  0  0  0
  9  4  1  0  0  0  0
 12  7  1  0  0  0  0
 13  8  1  0  0  0  0
 14 16  2  0  0  0  0
 14 17  1  0  0  0  0
 15 14  2  0  0  0  0
 18 14  1  0  0  0  0
 19 18  1  0  0  0  0
M  RAD  3   2   2   3   3  17   2
M  END
