Coordinates from ORCA-job PhN2+~HSO4-_B3LYPG-6-31G_dp-CH-Scan-d09-49-n800
 OpenBabel11261919183D

 19 18  0  0  0  0  0  0  0  0999 V2000
   -2.0660   -0.0043   -0.3775 C   0  0  0  0  0  0  0  0  0  0  0  0
   -3.3829   -0.3475   -0.6381 N   0  0  0  0  0  0  0  0  0  0  0  0
   -4.4549   -0.5824   -0.8317 N   0  0  0  0  0  0  0  0  0  0  0  0
   -1.8061    1.3550   -0.1293 C   0  0  0  0  0  0  0  0  0  0  0  0
   -0.4474    1.6129    0.1237 C   0  0  0  0  0  0  0  0  0  0  0  0
    0.5207    0.6096    0.1221 C   0  0  0  0  0  0  0  0  0  0  0  0
    0.1844   -0.7336   -0.1390 C   0  0  0  0  0  0  0  0  0  0  0  0
   -1.1300   -1.0665   -0.3980 C   0  0  0  0  0  0  0  0  0  0  0  0
   -2.8280    2.4054   -0.1021 H   0  0  0  0  0  0  0  0  0  0  0  0
   -0.1441    2.6356    0.3323 H   0  0  0  0  0  0  0  0  0  0  0  0
    1.5582    0.8612    0.3267 H   0  0  0  0  0  0  0  0  0  0  0  0
    0.9491   -1.5029   -0.1365 H   0  0  0  0  0  0  0  0  0  0  0  0
   -1.4377   -2.0866   -0.6042 H   0  0  0  0  0  0  0  0  0  0  0  0
   -5.0435    2.9521    0.3351 S   0  0  0  0  0  0  0  0  0  0  0  0
   -3.6154    3.3477   -0.0741 O   0  0  0  0  0  0  0  0  0  0  0  0
   -5.1089    1.5182    0.6455 O   0  0  0  0  0  0  0  0  0  0  0  0
   -5.6299    3.9175    1.2588 O   0  0  0  0  0  0  0  0  0  0  0  0
   -5.8939    3.0887   -1.0742 O   0  0  0  0  0  0  0  0  0  0  0  0
   -6.2393    3.9953   -1.0908 H   0  0  0  0  0  0  0  0  0  0  0  0
  1  4  1  0  0  0  0
  2  1  1  0  0  0  0
  3  2  1  0  0  0  0
  4  5  2  0  0  0  0
  5 10  1  0  0  0  0
  6  5  1  0  0  0  0
  6 11  1  0  0  0  0
  7 12  1  0  0  0  0
  7  6  2  0  0  0  0
  8  1  2  0  0  0  0
  8  7  1  0  0  0  0
  9 15  1  0  0  0  0
 13  8  1  0  0  0  0
 14 16  2  0  0  0  0
 14 17  2  0  0  0  0
 15 14  1  0  0  0  0
 18 14  1  0  0  0  0
 19 18  1  0  0  0  0
M  RAD  3   2   2   3   3   4   2
M  END
