Coordinates from ORCA-job PhN2+~HSO4-_B3LYPG-6-31G_dp-CH-Scan-d09-49-n800
 OpenBabel11261919183D

 19 18  0  0  0  0  0  0  0  0999 V2000
   -2.0347   -0.1671   -0.0084 C   0  0  0  0  0  0  0  0  0  0  0  0
   -3.3324   -0.6386    0.1310 N   0  0  0  0  0  0  0  0  0  0  0  0
   -4.3852   -0.9881    0.2532 N   0  0  0  0  0  0  0  0  0  0  0  0
   -1.8660    1.2074    0.2441 C   0  0  0  0  0  0  0  0  0  0  0  0
   -0.5093    1.5814    0.0842 C   0  0  0  0  0  0  0  0  0  0  0  0
    0.4983    0.6894   -0.2744 C   0  0  0  0  0  0  0  0  0  0  0  0
    0.2265   -0.6773   -0.5083 C   0  0  0  0  0  0  0  0  0  0  0  0
   -1.0656   -1.1377   -0.3765 C   0  0  0  0  0  0  0  0  0  0  0  0
   -3.2911    2.4664    0.7034 H   0  0  0  0  0  0  0  0  0  0  0  0
   -0.2327    2.6210    0.2506 H   0  0  0  0  0  0  0  0  0  0  0  0
    1.5217    1.0429   -0.3804 H   0  0  0  0  0  0  0  0  0  0  0  0
    1.0238   -1.3576   -0.7882 H   0  0  0  0  0  0  0  0  0  0  0  0
   -1.3309   -2.1770   -0.5463 H   0  0  0  0  0  0  0  0  0  0  0  0
   -5.3100    2.9164    0.0512 S   0  0  0  0  0  0  0  0  0  0  0  0
   -4.0247    3.1406    0.9450 O   0  0  0  0  0  0  0  0  0  0  0  0
   -5.4327    1.5134   -0.3141 O   0  0  0  0  0  0  0  0  0  0  0  0
   -6.4006    3.6549    0.6611 O   0  0  0  0  0  0  0  0  0  0  0  0
   -4.9205    3.6739   -1.3464 O   0  0  0  0  0  0  0  0  0  0  0  0
   -5.1495    4.6111   -1.2320 H   0  0  0  0  0  0  0  0  0  0  0  0
  1  2  1  0  0  0  0
  1  4  2  0  0  0  0
  2  3  1  0  0  0  0
  5  4  1  0  0  0  0
  5 10  1  0  0  0  0
  6  5  2  0  0  0  0
  7  8  2  0  0  0  0
  7  6  1  0  0  0  0
  8  1  1  0  0  0  0
  9 15  1  0  0  0  0
 11  6  1  0  0  0  0
 12  7  1  0  0  0  0
 13  8  1  0  0  0  0
 14 17  2  0  0  0  0
 14 15  1  0  0  0  0
 16 14  2  0  0  0  0
 18 19  1  0  0  0  0
 18 14  1  0  0  0  0
M  RAD  3   2   2   3   3   4   2
M  END
