Coordinates from ORCA-job PhN2+~HSO4-_B3LYPG-6-31G_dp-CH-Scan-d09-49-n800
 OpenBabel11261919183D

 19 18  0  0  0  0  0  0  0  0999 V2000
   -1.6356   -0.2767   -0.0217 C   0  0  0  0  0  0  0  0  0  0  0  0
   -2.9918   -0.5645    0.1311 N   0  0  0  0  0  0  0  0  0  0  0  0
   -4.0860   -0.7421    0.2820 N   0  0  0  0  0  0  0  0  0  0  0  0
   -1.3061    1.0215    0.3990 C   0  0  0  0  0  0  0  0  0  0  0  0
    0.0922    1.2280    0.2154 C   0  0  0  0  0  0  0  0  0  0  0  0
    0.9598    0.2718   -0.3028 C   0  0  0  0  0  0  0  0  0  0  0  0
    0.5047   -1.0124   -0.6940 C   0  0  0  0  0  0  0  0  0  0  0  0
   -0.8305   -1.3191   -0.5581 C   0  0  0  0  0  0  0  0  0  0  0  0
   -4.1967    3.5960    1.2524 H   0  0  0  0  0  0  0  0  0  0  0  0
    0.5200    2.1919    0.4948 H   0  0  0  0  0  0  0  0  0  0  0  0
    2.0181    0.5020   -0.4172 H   0  0  0  0  0  0  0  0  0  0  0  0
    1.1993   -1.7440   -1.0939 H   0  0  0  0  0  0  0  0  0  0  0  0
   -1.2384   -2.2861   -0.8404 H   0  0  0  0  0  0  0  0  0  0  0  0
   -5.9378    3.2023    0.0691 S   0  0  0  0  0  0  0  0  0  0  0  0
   -5.0641    4.0266    1.1562 O   0  0  0  0  0  0  0  0  0  0  0  0
   -5.5480    1.8090    0.1002 O   0  0  0  0  0  0  0  0  0  0  0  0
   -7.2978    3.6672    0.2336 O   0  0  0  0  0  0  0  0  0  0  0  0
   -5.3581    3.7842   -1.3346 O   0  0  0  0  0  0  0  0  0  0  0  0
   -5.8188    4.6199   -1.5222 H   0  0  0  0  0  0  0  0  0  0  0  0
  1  2  1  0  0  0  0
  1  4  2  0  0  0  0
  2  3  1  0  0  0  0
  5  4  1  0  0  0  0
  5 10  1  0  0  0  0
  6  5  2  0  0  0  0
  7  8  2  0  0  0  0
  7  6  1  0  0  0  0
  8  1  1  0  0  0  0
 11  6  1  0  0  0  0
 12  7  1  0  0  0  0
 13  8  1  0  0  0  0
 14 16  2  0  0  0  0
 14 17  2  0  0  0  0
 14 15  1  0  0  0  0
 15  9  1  0  0  0  0
 18 14  1  0  0  0  0
 19 18  1  0  0  0  0
M  RAD  3   2   2   3   3   4   2
M  END
