Coordinates from ORCA-job PhN2+~HSO4-_B3LYPG-6-31G_dp-CH-Scan-d09-49-n800
 OpenBabel11261919183D

 19 18  0  0  0  0  0  0  0  0999 V2000
   -2.0122    0.3395   -0.0065 C   0  0  0  0  0  0  0  0  0  0  0  0
   -3.4025    0.1840    0.0542 N   0  0  0  0  0  0  0  0  0  0  0  0
   -4.4025   -0.3273    0.0861 N   0  0  0  0  0  0  0  0  0  0  0  0
   -1.4176    1.5438    0.3870 C   0  0  0  0  0  0  0  0  0  0  0  0
   -0.0267    1.6101    0.3354 C   0  0  0  0  0  0  0  0  0  0  0  0
    0.7270    0.5198   -0.1057 C   0  0  0  0  0  0  0  0  0  0  0  0
    0.1020   -0.6697   -0.4990 C   0  0  0  0  0  0  0  0  0  0  0  0
   -1.2816   -0.7771   -0.4480 C   0  0  0  0  0  0  0  0  0  0  0  0
   -1.9744    2.2877    0.6657 H   0  0  0  0  0  0  0  0  0  0  0  0
    0.4673    2.5282    0.6357 H   0  0  0  0  0  0  0  0  0  0  0  0
    1.8095    0.5945   -0.1469 H   0  0  0  0  0  0  0  0  0  0  0  0
    0.6919   -1.5131   -0.8420 H   0  0  0  0  0  0  0  0  0  0  0  0
   -1.7936   -1.6865   -0.7422 H   0  0  0  0  0  0  0  0  0  0  0  0
   -5.4059    2.6816    0.0272 S   0  0  0  0  0  0  0  0  0  0  0  0
   -3.9187    2.5520   -0.0611 O   0  0  0  0  0  0  0  0  0  0  0  0
   -6.0296    1.3516    0.2651 O   0  0  0  0  0  0  0  0  0  0  0  0
   -5.8938    3.7786    0.8672 O   0  0  0  0  0  0  0  0  0  0  0  0
   -5.8411    3.1012   -1.5159 O   0  0  0  0  0  0  0  0  0  0  0  0
   -6.4131    3.8764   -1.4077 H   0  0  0  0  0  0  0  0  0  0  0  0
  1  2  1  0  0  0  0
  1  4  2  0  0  0  0
  2  3  1  0  0  0  0
  4  9  1  0  0  0  0
  5  4  1  0  0  0  0
  5 10  1  0  0  0  0
  6  5  2  0  0  0  0
  7  8  2  0  0  0  0
  7  6  1  0  0  0  0
  8  1  1  0  0  0  0
 11  6  1  0  0  0  0
 12  7  1  0  0  0  0
 13  8  1  0  0  0  0
 14 16  2  0  0  0  0
 14 17  1  0  0  0  0
 15 14  2  0  0  0  0
 18 19  1  0  0  0  0
 18 14  1  0  0  0  0
M  RAD  3   2   2   3   3  17   2
M  END
