Coordinates from ORCA-job PhN2+~HSO4-_B3LYPG-6-31G_dp-CH-Scan-d09-49-n800
 OpenBabel11261919183D

 19 18  0  0  0  0  0  0  0  0999 V2000
   -1.8947   -0.2035   -0.0586 C   0  0  0  0  0  0  0  0  0  0  0  0
   -3.2195   -0.6111    0.0452 N   0  0  0  0  0  0  0  0  0  0  0  0
   -4.2928   -0.9061    0.1421 N   0  0  0  0  0  0  0  0  0  0  0  0
   -1.6806    1.1509    0.2545 C   0  0  0  0  0  0  0  0  0  0  0  0
   -0.3012    1.4651    0.1262 C   0  0  0  0  0  0  0  0  0  0  0  0
    0.6702    0.5443   -0.2557 C   0  0  0  0  0  0  0  0  0  0  0  0
    0.3428   -0.8007   -0.5499 C   0  0  0  0  0  0  0  0  0  0  0  0
   -0.9695   -1.2077   -0.4546 C   0  0  0  0  0  0  0  0  0  0  0  0
   -3.5695    2.8805    0.8830 H   0  0  0  0  0  0  0  0  0  0  0  0
    0.0255    2.4826    0.3382 H   0  0  0  0  0  0  0  0  0  0  0  0
    1.7106    0.8543   -0.3344 H   0  0  0  0  0  0  0  0  0  0  0  0
    1.1147   -1.5031   -0.8465 H   0  0  0  0  0  0  0  0  0  0  0  0
   -1.2789   -2.2265   -0.6699 H   0  0  0  0  0  0  0  0  0  0  0  0
   -5.5624    3.0373    0.1109 S   0  0  0  0  0  0  0  0  0  0  0  0
   -4.3275    3.4911    1.0289 O   0  0  0  0  0  0  0  0  0  0  0  0
   -5.5770    1.5939   -0.0249 O   0  0  0  0  0  0  0  0  0  0  0  0
   -6.7035    3.8031    0.5684 O   0  0  0  0  0  0  0  0  0  0  0  0
   -5.1274    3.5958   -1.3577 O   0  0  0  0  0  0  0  0  0  0  0  0
   -5.3748    4.5350   -1.3966 H   0  0  0  0  0  0  0  0  0  0  0  0
  1  2  1  0  0  0  0
  1  4  2  0  0  0  0
  2  3  1  0  0  0  0
  5  4  1  0  0  0  0
  5 10  1  0  0  0  0
  6  5  2  0  0  0  0
  7  8  2  0  0  0  0
  7  6  1  0  0  0  0
  8  1  1  0  0  0  0
  9 15  1  0  0  0  0
 11  6  1  0  0  0  0
 12  7  1  0  0  0  0
 13  8  1  0  0  0  0
 14 17  2  0  0  0  0
 14 15  1  0  0  0  0
 16 14  2  0  0  0  0
 18 14  1  0  0  0  0
 19 18  1  0  0  0  0
M  RAD  3   2   2   3   3   4   2
M  END
