Coordinates from ORCA-job PhN2+~HSO4-_B3LYPG-6-31G_dp-CH-Scan-d09-49-n800
 OpenBabel11261919183D

 19 18  0  0  0  0  0  0  0  0999 V2000
   -1.8156   -0.2284   -0.0497 C   0  0  0  0  0  0  0  0  0  0  0  0
   -3.1508   -0.6020    0.0681 N   0  0  0  0  0  0  0  0  0  0  0  0
   -4.2318   -0.8634    0.1799 N   0  0  0  0  0  0  0  0  0  0  0  0
   -1.5708    1.1119    0.2970 C   0  0  0  0  0  0  0  0  0  0  0  0
   -0.1842    1.3948    0.1515 C   0  0  0  0  0  0  0  0  0  0  0  0
    0.7585    0.4629   -0.2722 C   0  0  0  0  0  0  0  0  0  0  0  0
    0.3952   -0.8669   -0.5962 C   0  0  0  0  0  0  0  0  0  0  0  0
   -0.9242   -1.2459   -0.4887 C   0  0  0  0  0  0  0  0  0  0  0  0
   -3.7549    3.1086    1.0258 H   0  0  0  0  0  0  0  0  0  0  0  0
    0.1722    2.3984    0.3841 H   0  0  0  0  0  0  0  0  0  0  0  0
    1.8046    0.7506   -0.3619 H   0  0  0  0  0  0  0  0  0  0  0  0
    1.1459   -1.5783   -0.9244 H   0  0  0  0  0  0  0  0  0  0  0  0
   -1.2619   -2.2512   -0.7246 H   0  0  0  0  0  0  0  0  0  0  0  0
   -5.6840    3.0903    0.0976 S   0  0  0  0  0  0  0  0  0  0  0  0
   -4.5518    3.6708    1.0873 O   0  0  0  0  0  0  0  0  0  0  0  0
   -5.5731    1.6483    0.0184 O   0  0  0  0  0  0  0  0  0  0  0  0
   -6.9058    3.7814    0.4516 O   0  0  0  0  0  0  0  0  0  0  0  0
   -5.1844    3.6389   -1.3518 O   0  0  0  0  0  0  0  0  0  0  0  0
   -5.4986    4.5545   -1.4431 H   0  0  0  0  0  0  0  0  0  0  0  0
  1  2  1  0  0  0  0
  1  4  2  0  0  0  0
  2  3  1  0  0  0  0
  5  4  1  0  0  0  0
  5 10  1  0  0  0  0
  6  5  2  0  0  0  0
  7  8  2  0  0  0  0
  7  6  1  0  0  0  0
  8  1  1  0  0  0  0
  9 15  1  0  0  0  0
 11  6  1  0  0  0  0
 12  7  1  0  0  0  0
 13  8  1  0  0  0  0
 14 17  2  0  0  0  0
 14 15  1  0  0  0  0
 16 14  2  0  0  0  0
 18 14  1  0  0  0  0
 19 18  1  0  0  0  0
M  RAD  3   2   2   3   3   4   2
M  END
