Coordinates from ORCA-job PhN2+~HSO4-_B3LYPG-6-31G_dp-CH-Scan-d09-49-n800
 OpenBabel11261919183D

 19 18  0  0  0  0  0  0  0  0999 V2000
   -1.9312   -0.1928   -0.0586 C   0  0  0  0  0  0  0  0  0  0  0  0
   -3.2505   -0.6168    0.0422 N   0  0  0  0  0  0  0  0  0  0  0  0
   -4.3193   -0.9268    0.1374 N   0  0  0  0  0  0  0  0  0  0  0  0
   -1.7305    1.1666    0.2428 C   0  0  0  0  0  0  0  0  0  0  0  0
   -0.3552    1.4956    0.1181 C   0  0  0  0  0  0  0  0  0  0  0  0
    0.6281    0.5821   -0.2513 C   0  0  0  0  0  0  0  0  0  0  0  0
    0.3163   -0.7684   -0.5349 C   0  0  0  0  0  0  0  0  0  0  0  0
   -0.9920   -1.1887   -0.4417 C   0  0  0  0  0  0  0  0  0  0  0  0
   -3.4939    2.7816    0.8288 H   0  0  0  0  0  0  0  0  0  0  0  0
   -0.0418    2.5186    0.3226 H   0  0  0  0  0  0  0  0  0  0  0  0
    1.6652    0.9030   -0.3278 H   0  0  0  0  0  0  0  0  0  0  0  0
    1.0968   -1.4651   -0.8221 H   0  0  0  0  0  0  0  0  0  0  0  0
   -1.2891   -2.2127   -0.6495 H   0  0  0  0  0  0  0  0  0  0  0  0
   -5.5032    3.0119    0.1139 S   0  0  0  0  0  0  0  0  0  0  0  0
   -4.2356    3.4124    1.0042 O   0  0  0  0  0  0  0  0  0  0  0  0
   -5.5693    1.5711   -0.0432 O   0  0  0  0  0  0  0  0  0  0  0  0
   -6.6116    3.8041    0.6069 O   0  0  0  0  0  0  0  0  0  0  0  0
   -5.0895    3.5765   -1.3599 O   0  0  0  0  0  0  0  0  0  0  0  0
   -5.3093    4.5231   -1.3792 H   0  0  0  0  0  0  0  0  0  0  0  0
  1  2  1  0  0  0  0
  1  4  2  0  0  0  0
  2  3  1  0  0  0  0
  5  4  1  0  0  0  0
  5 10  1  0  0  0  0
  6  5  2  0  0  0  0
  7  8  2  0  0  0  0
  7  6  1  0  0  0  0
  8  1  1  0  0  0  0
  9 15  1  0  0  0  0
 11  6  1  0  0  0  0
 12  7  1  0  0  0  0
 13  8  1  0  0  0  0
 14 17  2  0  0  0  0
 14 15  1  0  0  0  0
 16 14  2  0  0  0  0
 18 14  1  0  0  0  0
 19 18  1  0  0  0  0
M  RAD  3   2   2   3   3   4   2
M  END
