Coordinates from ORCA-job PhN2+~HSO4-_B3LYPG-6-31G_dp-CH-Scan-d09-49-n800
 OpenBabel11261919183D

 19 18  0  0  0  0  0  0  0  0999 V2000
   -1.5978   -0.2830    0.0057 C   0  0  0  0  0  0  0  0  0  0  0  0
   -2.9552   -0.5525    0.1833 N   0  0  0  0  0  0  0  0  0  0  0  0
   -4.0489   -0.7124    0.3571 N   0  0  0  0  0  0  0  0  0  0  0  0
   -1.2404    0.9980    0.4542 C   0  0  0  0  0  0  0  0  0  0  0  0
    0.1565    1.1895    0.2439 C   0  0  0  0  0  0  0  0  0  0  0  0
    0.9975    0.2358   -0.3206 C   0  0  0  0  0  0  0  0  0  0  0  0
    0.5145   -1.0307   -0.7359 C   0  0  0  0  0  0  0  0  0  0  0  0
   -0.8217   -1.3222   -0.5774 C   0  0  0  0  0  0  0  0  0  0  0  0
   -4.3139    3.6748    1.3072 H   0  0  0  0  0  0  0  0  0  0  0  0
    0.6049    2.1393    0.5395 H   0  0  0  0  0  0  0  0  0  0  0  0
    2.0562    0.4540   -0.4537 H   0  0  0  0  0  0  0  0  0  0  0  0
    1.1890   -1.7608   -1.1715 H   0  0  0  0  0  0  0  0  0  0  0  0
   -1.2502   -2.2753   -0.8759 H   0  0  0  0  0  0  0  0  0  0  0  0
   -5.9852    3.2191    0.0486 S   0  0  0  0  0  0  0  0  0  0  0  0
   -5.1864    4.0813    1.1651 O   0  0  0  0  0  0  0  0  0  0  0  0
   -5.5452    1.8419    0.1081 O   0  0  0  0  0  0  0  0  0  0  0  0
   -7.3668    3.6354    0.1534 O   0  0  0  0  0  0  0  0  0  0  0  0
   -5.3693    3.8135   -1.3338 O   0  0  0  0  0  0  0  0  0  0  0  0
   -5.8535    4.6293   -1.5484 H   0  0  0  0  0  0  0  0  0  0  0  0
  1  2  1  0  0  0  0
  1  4  2  0  0  0  0
  2  3  1  0  0  0  0
  5  4  1  0  0  0  0
  5 10  1  0  0  0  0
  6  5  2  0  0  0  0
  7  8  2  0  0  0  0
  7  6  1  0  0  0  0
  8  1  1  0  0  0  0
 11  6  1  0  0  0  0
 12  7  1  0  0  0  0
 13  8  1  0  0  0  0
 14 16  2  0  0  0  0
 14 17  2  0  0  0  0
 14 15  1  0  0  0  0
 15  9  1  0  0  0  0
 18 14  1  0  0  0  0
 19 18  1  0  0  0  0
M  RAD  3   2   2   3   3   4   2
M  END
