Coordinates from ORCA-job PhN2+~HSO4-_B3LYPG-6-31G_dp-CH-Scan-d09-49-n800
 OpenBabel11261919183D

 19 18  0  0  0  0  0  0  0  0999 V2000
   -1.7505   -0.2476   -0.0545 C   0  0  0  0  0  0  0  0  0  0  0  0
   -3.0953   -0.5906    0.0636 N   0  0  0  0  0  0  0  0  0  0  0  0
   -4.1832   -0.8218    0.1796 N   0  0  0  0  0  0  0  0  0  0  0  0
   -1.4820    1.0829    0.3087 C   0  0  0  0  0  0  0  0  0  0  0  0
   -0.0891    1.3385    0.1632 C   0  0  0  0  0  0  0  0  0  0  0  0
    0.8338    0.3934   -0.2740 C   0  0  0  0  0  0  0  0  0  0  0  0
    0.4435   -0.9255   -0.6136 C   0  0  0  0  0  0  0  0  0  0  0  0
   -0.8829   -1.2792   -0.5081 C   0  0  0  0  0  0  0  0  0  0  0  0
   -3.8903    3.2732    1.0912 H   0  0  0  0  0  0  0  0  0  0  0  0
    0.2889    2.3319    0.4071 H   0  0  0  0  0  0  0  0  0  0  0  0
    1.8855    0.6610   -0.3627 H   0  0  0  0  0  0  0  0  0  0  0  0
    1.1796   -1.6474   -0.9518 H   0  0  0  0  0  0  0  0  0  0  0  0
   -1.2415   -2.2747   -0.7551 H   0  0  0  0  0  0  0  0  0  0  0  0
   -5.7818    3.1370    0.0972 S   0  0  0  0  0  0  0  0  0  0  0  0
   -4.7102    3.8001    1.1083 O   0  0  0  0  0  0  0  0  0  0  0  0
   -5.5810    1.7038    0.0490 O   0  0  0  0  0  0  0  0  0  0  0  0
   -7.0492    3.7624    0.4087 O   0  0  0  0  0  0  0  0  0  0  0  0
   -5.2734    3.6918   -1.3456 O   0  0  0  0  0  0  0  0  0  0  0  0
   -5.6365    4.5862   -1.4623 H   0  0  0  0  0  0  0  0  0  0  0  0
  1  2  1  0  0  0  0
  1  4  2  0  0  0  0
  2  3  1  0  0  0  0
  5  4  1  0  0  0  0
  5 10  1  0  0  0  0
  6  5  2  0  0  0  0
  7  8  2  0  0  0  0
  7  6  1  0  0  0  0
  8  1  1  0  0  0  0
  9 15  1  0  0  0  0
 11  6  1  0  0  0  0
 12  7  1  0  0  0  0
 13  8  1  0  0  0  0
 14 17  2  0  0  0  0
 14 15  1  0  0  0  0
 16 14  2  0  0  0  0
 18 14  1  0  0  0  0
 19 18  1  0  0  0  0
M  RAD  3   2   2   3   3   4   2
M  END
