Coordinates from ORCA-job PhN2+~HSO4-_B3LYPG-6-31G_dp-CH-Scan-d09-49-n800
 OpenBabel11261919183D

 19 18  0  0  0  0  0  0  0  0999 V2000
   -1.7509   -0.2776    0.8368 C   0  0  0  0  0  0  0  0  0  0  0  0
   -2.8587   -0.9403    1.3740 N   0  0  0  0  0  0  0  0  0  0  0  0
   -3.6962   -1.4865    1.8742 N   0  0  0  0  0  0  0  0  0  0  0  0
   -0.6347   -0.3496    1.6811 C   0  0  0  0  0  0  0  0  0  0  0  0
    0.4394    0.3848    1.0887 C   0  0  0  0  0  0  0  0  0  0  0  0
    0.3471    1.0606   -0.1222 C   0  0  0  0  0  0  0  0  0  0  0  0
   -0.8411    1.0357   -0.9010 C   0  0  0  0  0  0  0  0  0  0  0  0
   -1.9376    0.3435   -0.4296 C   0  0  0  0  0  0  0  0  0  0  0  0
   -3.0019    2.8157   -0.5105 H   0  0  0  0  0  0  0  0  0  0  0  0
    1.3942    0.4279    1.6145 H   0  0  0  0  0  0  0  0  0  0  0  0
    1.2039    1.6128   -0.5047 H   0  0  0  0  0  0  0  0  0  0  0  0
   -0.8703    1.5231   -1.8710 H   0  0  0  0  0  0  0  0  0  0  0  0
   -2.8631    0.2506   -0.9905 H   0  0  0  0  0  0  0  0  0  0  0  0
   -5.1339    2.5722   -0.4938 S   0  0  0  0  0  0  0  0  0  0  0  0
   -3.7618    3.4221   -0.6003 O   0  0  0  0  0  0  0  0  0  0  0  0
   -4.9166    1.4148    0.3509 O   0  0  0  0  0  0  0  0  0  0  0  0
   -6.1845    3.5425   -0.2852 O   0  0  0  0  0  0  0  0  0  0  0  0
   -5.2657    1.9724   -2.0023 O   0  0  0  0  0  0  0  0  0  0  0  0
   -5.6832    2.6507   -2.5607 H   0  0  0  0  0  0  0  0  0  0  0  0
  1  2  1  0  0  0  0
  1  4  2  0  0  0  0
  2  3  1  0  0  0  0
  5 10  1  0  0  0  0
  5  4  1  0  0  0  0
  6  5  2  0  0  0  0
  7  8  2  0  0  0  0
  7  6  1  0  0  0  0
  8  1  1  0  0  0  0
 11  6  1  0  0  0  0
 12  7  1  0  0  0  0
 13  8  1  0  0  0  0
 14 17  2  0  0  0  0
 14 16  2  0  0  0  0
 15  9  1  0  0  0  0
 15 14  1  0  0  0  0
 18 14  1  0  0  0  0
 19 18  1  0  0  0  0
M  RAD  3   2   2   3   3   4   2
M  END
