Coordinates from ORCA-job PhN2+~HSO4-_B3LYPG-6-31G_dp-CH-Scan-d09-49-n800
 OpenBabel11261919183D

 19 18  0  0  0  0  0  0  0  0999 V2000
   -1.9933   -0.1740   -0.0605 C   0  0  0  0  0  0  0  0  0  0  0  0
   -3.3032   -0.6251    0.0325 N   0  0  0  0  0  0  0  0  0  0  0  0
   -4.3650   -0.9594    0.1170 N   0  0  0  0  0  0  0  0  0  0  0  0
   -1.8144    1.1925    0.2242 C   0  0  0  0  0  0  0  0  0  0  0  0
   -0.4459    1.5456    0.1086 C   0  0  0  0  0  0  0  0  0  0  0  0
    0.5570    0.6448   -0.2397 C   0  0  0  0  0  0  0  0  0  0  0  0
    0.2710   -0.7133   -0.5086 C   0  0  0  0  0  0  0  0  0  0  0  0
   -1.0310   -1.1551   -0.4219 C   0  0  0  0  0  0  0  0  0  0  0  0
   -3.3625    2.6130    0.7322 H   0  0  0  0  0  0  0  0  0  0  0  0
   -0.1550    2.5767    0.3033 H   0  0  0  0  0  0  0  0  0  0  0  0
    1.5887    0.9833   -0.3101 H   0  0  0  0  0  0  0  0  0  0  0  0
    1.0655   -1.4004   -0.7800 H   0  0  0  0  0  0  0  0  0  0  0  0
   -1.3081   -2.1865   -0.6195 H   0  0  0  0  0  0  0  0  0  0  0  0
   -5.3976    2.9710    0.1241 S   0  0  0  0  0  0  0  0  0  0  0  0
   -4.0751    3.2875    0.9488 O   0  0  0  0  0  0  0  0  0  0  0  0
   -5.5491    1.5373   -0.0553 O   0  0  0  0  0  0  0  0  0  0  0  0
   -6.4473    3.8045    0.6771 O   0  0  0  0  0  0  0  0  0  0  0  0
   -5.0359    3.5389   -1.3652 O   0  0  0  0  0  0  0  0  0  0  0  0
   -5.2141    4.4942   -1.3581 H   0  0  0  0  0  0  0  0  0  0  0  0
  1  2  1  0  0  0  0
  1  4  2  0  0  0  0
  2  3  1  0  0  0  0
  5  4  1  0  0  0  0
  5 10  1  0  0  0  0
  6  5  2  0  0  0  0
  7  8  2  0  0  0  0
  7  6  1  0  0  0  0
  8  1  1  0  0  0  0
  9 15  1  0  0  0  0
 11  6  1  0  0  0  0
 12  7  1  0  0  0  0
 13  8  1  0  0  0  0
 14 17  2  0  0  0  0
 14 15  1  0  0  0  0
 16 14  2  0  0  0  0
 18 19  1  0  0  0  0
 18 14  1  0  0  0  0
M  RAD  3   2   2   3   3   4   2
M  END
