Coordinates from ORCA-job PhN2+~HSO4-_B3LYPG-6-31G_dp-CH-Scan-d09-49-n800
 OpenBabel11261919183D

 19 18  0  0  0  0  0  0  0  0999 V2000
   -1.9747    0.3168   -0.1057 C   0  0  0  0  0  0  0  0  0  0  0  0
   -3.3658    0.1797   -0.1273 N   0  0  0  0  0  0  0  0  0  0  0  0
   -4.3919   -0.2762   -0.1607 N   0  0  0  0  0  0  0  0  0  0  0  0
   -1.3892    1.5380    0.2426 C   0  0  0  0  0  0  0  0  0  0  0  0
    0.0009    1.5971    0.2812 C   0  0  0  0  0  0  0  0  0  0  0  0
    0.7662    0.4690   -0.0263 C   0  0  0  0  0  0  0  0  0  0  0  0
    0.1547   -0.7421   -0.3768 C   0  0  0  0  0  0  0  0  0  0  0  0
   -1.2295   -0.8357   -0.4177 C   0  0  0  0  0  0  0  0  0  0  0  0
   -2.1050    2.4525    0.4539 H   0  0  0  0  0  0  0  0  0  0  0  0
    0.4861    2.5298    0.5476 H   0  0  0  0  0  0  0  0  0  0  0  0
    1.8501    0.5301    0.0044 H   0  0  0  0  0  0  0  0  0  0  0  0
    0.7574   -1.6119   -0.6156 H   0  0  0  0  0  0  0  0  0  0  0  0
   -1.7312   -1.7603   -0.6813 H   0  0  0  0  0  0  0  0  0  0  0  0
   -5.4066    2.7258    0.0527 S   0  0  0  0  0  0  0  0  0  0  0  0
   -3.9346    2.6515   -0.1788 O   0  0  0  0  0  0  0  0  0  0  0  0
   -5.9778    1.3594    0.2338 O   0  0  0  0  0  0  0  0  0  0  0  0
   -5.8578    3.7244    1.0255 O   0  0  0  0  0  0  0  0  0  0  0  0
   -5.9724    3.2588   -1.4101 O   0  0  0  0  0  0  0  0  0  0  0  0
   -6.6945    3.8684   -1.1924 H   0  0  0  0  0  0  0  0  0  0  0  0
  1  4  2  0  0  0  0
  2  1  1  0  0  0  0
  3  2  1  0  0  0  0
  4  5  1  0  0  0  0
  4  9  1  0  0  0  0
  5 10  1  0  0  0  0
  6 11  1  0  0  0  0
  6  5  2  0  0  0  0
  7  6  1  0  0  0  0
  8  7  2  0  0  0  0
  8  1  1  0  0  0  0
 12  7  1  0  0  0  0
 13  8  1  0  0  0  0
 14 16  2  0  0  0  0
 14 17  1  0  0  0  0
 15 14  2  0  0  0  0
 18 19  1  0  0  0  0
 18 14  1  0  0  0  0
M  RAD  3   2   2   3   3  17   2
M  END
