Coordinates from ORCA-job PhN2+~HSO4-_B3LYPG-6-31G_dp-CH-Scan-d09-49-n800
 OpenBabel11261919183D

 19 18  0  0  0  0  0  0  0  0999 V2000
   -1.7301   -0.2654    0.8443 C   0  0  0  0  0  0  0  0  0  0  0  0
   -2.8524   -0.9017    1.3827 N   0  0  0  0  0  0  0  0  0  0  0  0
   -3.7019   -1.4290    1.8832 N   0  0  0  0  0  0  0  0  0  0  0  0
   -0.6114   -0.3761    1.6813 C   0  0  0  0  0  0  0  0  0  0  0  0
    0.4806    0.3285    1.0864 C   0  0  0  0  0  0  0  0  0  0  0  0
    0.4019    1.0117   -0.1215 C   0  0  0  0  0  0  0  0  0  0  0  0
   -0.7916    1.0294   -0.8914 C   0  0  0  0  0  0  0  0  0  0  0  0
   -1.9061    0.3702   -0.4163 C   0  0  0  0  0  0  0  0  0  0  0  0
   -3.0789    2.9229   -0.4959 H   0  0  0  0  0  0  0  0  0  0  0  0
    1.4395    0.3403    1.6065 H   0  0  0  0  0  0  0  0  0  0  0  0
    1.2735    1.5381   -0.5073 H   0  0  0  0  0  0  0  0  0  0  0  0
   -0.8134    1.5265   -1.8566 H   0  0  0  0  0  0  0  0  0  0  0  0
   -2.8385    0.3112   -0.9701 H   0  0  0  0  0  0  0  0  0  0  0  0
   -5.1947    2.5686   -0.5083 S   0  0  0  0  0  0  0  0  0  0  0  0
   -3.8665    3.4900   -0.5930 O   0  0  0  0  0  0  0  0  0  0  0  0
   -4.9245    1.4184    0.3307 O   0  0  0  0  0  0  0  0  0  0  0  0
   -6.2958    3.4819   -0.3039 O   0  0  0  0  0  0  0  0  0  0  0  0
   -5.2788    1.9754   -2.0220 O   0  0  0  0  0  0  0  0  0  0  0  0
   -5.7265    2.6344   -2.5800 H   0  0  0  0  0  0  0  0  0  0  0  0
  1  2  1  0  0  0  0
  1  4  2  0  0  0  0
  2  3  1  0  0  0  0
  5 10  1  0  0  0  0
  5  4  1  0  0  0  0
  6  5  2  0  0  0  0
  7  8  2  0  0  0  0
  7  6  1  0  0  0  0
  8  1  1  0  0  0  0
 11  6  1  0  0  0  0
 12  7  1  0  0  0  0
 13  8  1  0  0  0  0
 14 17  2  0  0  0  0
 14 16  2  0  0  0  0
 15 14  1  0  0  0  0
 15  9  1  0  0  0  0
 18 14  1  0  0  0  0
 19 18  1  0  0  0  0
M  RAD  3   2   2   3   3   4   2
M  END
