Coordinates from ORCA-job PhN2+~HSO4-_B3LYPG-6-31G_dp-CH-Scan-d09-49-n800
 OpenBabel11261919183D

 19 18  0  0  0  0  0  0  0  0999 V2000
   -2.0140    0.1147   -0.4200 C   0  0  0  0  0  0  0  0  0  0  0  0
   -3.3531   -0.0717   -0.7492 N   0  0  0  0  0  0  0  0  0  0  0  0
   -4.4706    0.0479   -0.8242 N   0  0  0  0  0  0  0  0  0  0  0  0
   -1.6008    1.4149   -0.0942 C   0  0  0  0  0  0  0  0  0  0  0  0
   -0.2563    1.5745    0.2339 C   0  0  0  0  0  0  0  0  0  0  0  0
    0.6135    0.4802    0.2360 C   0  0  0  0  0  0  0  0  0  0  0  0
    0.1643   -0.8044   -0.1042 C   0  0  0  0  0  0  0  0  0  0  0  0
   -1.1643   -1.0036   -0.4500 C   0  0  0  0  0  0  0  0  0  0  0  0
   -2.4272    2.3381   -0.1526 H   0  0  0  0  0  0  0  0  0  0  0  0
    0.1112    2.5624    0.4911 H   0  0  0  0  0  0  0  0  0  0  0  0
    1.6565    0.6253    0.5011 H   0  0  0  0  0  0  0  0  0  0  0  0
    0.8518   -1.6433   -0.1022 H   0  0  0  0  0  0  0  0  0  0  0  0
   -1.5462   -1.9812   -0.7225 H   0  0  0  0  0  0  0  0  0  0  0  0
   -5.0469    3.0193    0.1504 S   0  0  0  0  0  0  0  0  0  0  0  0
   -3.8020    3.3390   -0.5943 O   0  0  0  0  0  0  0  0  0  0  0  0
   -5.0320    1.5981    0.6544 O   0  0  0  0  0  0  0  0  0  0  0  0
   -5.5004    3.9811    1.1578 O   0  0  0  0  0  0  0  0  0  0  0  0
   -6.1914    3.0421   -1.0462 O   0  0  0  0  0  0  0  0  0  0  0  0
   -7.0076    3.3421   -0.6164 H   0  0  0  0  0  0  0  0  0  0  0  0
  1  4  1  0  0  0  0
  2  1  1  0  0  0  0
  3  2  1  0  0  0  0
  4  5  2  0  0  0  0
  5  6  1  0  0  0  0
  5 10  1  0  0  0  0
  6 11  1  0  0  0  0
  7 12  1  0  0  0  0
  7  6  2  0  0  0  0
  8  1  2  0  0  0  0
  8  7  1  0  0  0  0
  9  4  1  0  0  0  0
 13  8  1  0  0  0  0
 14 16  2  0  0  0  0
 14 17  1  0  0  0  0
 15 14  2  0  0  0  0
 18 19  1  0  0  0  0
 18 14  1  0  0  0  0
M  RAD  3   2   2   3   3  17   2
M  END
