Coordinates from ORCA-job PhN2+~HSO4-_B3LYPG-6-31G_dp-CH-Scan-d09-49-n800
 OpenBabel11261919183D

 19 18  0  0  0  0  0  0  0  0999 V2000
   -1.7084   -0.2460    0.8516 C   0  0  0  0  0  0  0  0  0  0  0  0
   -2.8470   -0.8511    1.3913 N   0  0  0  0  0  0  0  0  0  0  0  0
   -3.7094   -1.3561    1.8929 N   0  0  0  0  0  0  0  0  0  0  0  0
   -0.5907   -0.3953    1.6843 C   0  0  0  0  0  0  0  0  0  0  0  0
    0.5218    0.2725    1.0860 C   0  0  0  0  0  0  0  0  0  0  0  0
    0.4619    0.9567   -0.1227 C   0  0  0  0  0  0  0  0  0  0  0  0
   -0.7336    1.0179   -0.8862 C   0  0  0  0  0  0  0  0  0  0  0  0
   -1.8685    0.3989   -0.4063 C   0  0  0  0  0  0  0  0  0  0  0  0
   -3.1670    3.0262   -0.4713 H   0  0  0  0  0  0  0  0  0  0  0  0
    1.4824    0.2526    1.6028 H   0  0  0  0  0  0  0  0  0  0  0  0
    1.3499    1.4515   -0.5127 H   0  0  0  0  0  0  0  0  0  0  0  0
   -0.7435    1.5206   -1.8485 H   0  0  0  0  0  0  0  0  0  0  0  0
   -2.8063    0.3761   -0.9537 H   0  0  0  0  0  0  0  0  0  0  0  0
   -5.2597    2.5592   -0.5228 S   0  0  0  0  0  0  0  0  0  0  0  0
   -3.9809    3.5517   -0.5768 O   0  0  0  0  0  0  0  0  0  0  0  0
   -4.9352    1.4114    0.3003 O   0  0  0  0  0  0  0  0  0  0  0  0
   -6.4098    3.4086   -0.3147 O   0  0  0  0  0  0  0  0  0  0  0  0
   -5.2959    1.9891   -2.0464 O   0  0  0  0  0  0  0  0  0  0  0  0
   -5.7756    2.6309   -2.5981 H   0  0  0  0  0  0  0  0  0  0  0  0
  1  2  1  0  0  0  0
  1  4  2  0  0  0  0
  2  3  1  0  0  0  0
  5 10  1  0  0  0  0
  5  4  1  0  0  0  0
  6  5  2  0  0  0  0
  7  8  2  0  0  0  0
  7  6  1  0  0  0  0
  8  1  1  0  0  0  0
 11  6  1  0  0  0  0
 12  7  1  0  0  0  0
 13  8  1  0  0  0  0
 14 17  2  0  0  0  0
 14 16  2  0  0  0  0
 15 14  1  0  0  0  0
 15  9  1  0  0  0  0
 18 14  1  0  0  0  0
 19 18  1  0  0  0  0
M  RAD  3   2   2   3   3   4   2
M  END
