Coordinates from ORCA-job PhN2+~HSO4-_B3LYPG-6-31G_dp-CH-Scan-d09-49-n800
 OpenBabel11261919183D

 19 18  0  0  0  0  0  0  0  0999 V2000
   -1.9709   -0.1810   -0.0583 C   0  0  0  0  0  0  0  0  0  0  0  0
   -3.2840   -0.6225    0.0392 N   0  0  0  0  0  0  0  0  0  0  0  0
   -4.3483   -0.9488    0.1275 N   0  0  0  0  0  0  0  0  0  0  0  0
   -1.7843    1.1831    0.2323 C   0  0  0  0  0  0  0  0  0  0  0  0
   -0.4136    1.5280    0.1117 C   0  0  0  0  0  0  0  0  0  0  0  0
    0.5821    0.6228   -0.2455 C   0  0  0  0  0  0  0  0  0  0  0  0
    0.2870   -0.7327   -0.5194 C   0  0  0  0  0  0  0  0  0  0  0  0
   -1.0171   -1.1673   -0.4287 C   0  0  0  0  0  0  0  0  0  0  0  0
   -3.4122    2.6734    0.7706 H   0  0  0  0  0  0  0  0  0  0  0  0
   -0.1145    2.5563    0.3096 H   0  0  0  0  0  0  0  0  0  0  0  0
    1.6156    0.9553   -0.3194 H   0  0  0  0  0  0  0  0  0  0  0  0
    1.0763   -1.4230   -0.7976 H   0  0  0  0  0  0  0  0  0  0  0  0
   -1.3013   -2.1961   -0.6298 H   0  0  0  0  0  0  0  0  0  0  0  0
   -5.4364    2.9852    0.1188 S   0  0  0  0  0  0  0  0  0  0  0  0
   -4.1350    3.3310    0.9722 O   0  0  0  0  0  0  0  0  0  0  0  0
   -5.5569    1.5487   -0.0549 O   0  0  0  0  0  0  0  0  0  0  0  0
   -6.5087    3.8043    0.6485 O   0  0  0  0  0  0  0  0  0  0  0  0
   -5.0509    3.5530   -1.3632 O   0  0  0  0  0  0  0  0  0  0  0  0
   -5.2426    4.5057   -1.3648 H   0  0  0  0  0  0  0  0  0  0  0  0
  1  2  1  0  0  0  0
  1  4  2  0  0  0  0
  2  3  1  0  0  0  0
  5  4  1  0  0  0  0
  5 10  1  0  0  0  0
  6  5  2  0  0  0  0
  7  8  2  0  0  0  0
  7  6  1  0  0  0  0
  8  1  1  0  0  0  0
  9 15  1  0  0  0  0
 11  6  1  0  0  0  0
 12  7  1  0  0  0  0
 13  8  1  0  0  0  0
 14 17  2  0  0  0  0
 14 15  1  0  0  0  0
 16 14  2  0  0  0  0
 18 14  1  0  0  0  0
 19 18  1  0  0  0  0
M  RAD  3   2   2   3   3   4   2
M  END
