Coordinates from ORCA-job PhN2+~HSO4-_B3LYPG-6-31G_dp-CH-Scan-d09-49-n800
 OpenBabel11261919183D

 19 18  0  0  0  0  0  0  0  0999 V2000
   -1.8741   -0.2096   -0.0570 C   0  0  0  0  0  0  0  0  0  0  0  0
   -3.2018   -0.6081    0.0496 N   0  0  0  0  0  0  0  0  0  0  0  0
   -4.2773   -0.8942    0.1497 N   0  0  0  0  0  0  0  0  0  0  0  0
   -1.6519    1.1412    0.2651 C   0  0  0  0  0  0  0  0  0  0  0  0
   -0.2704    1.4470    0.1331 C   0  0  0  0  0  0  0  0  0  0  0  0
    0.6936    0.5230   -0.2593 C   0  0  0  0  0  0  0  0  0  0  0  0
    0.3568   -0.8182   -0.5616 C   0  0  0  0  0  0  0  0  0  0  0  0
   -0.9575   -1.2176   -0.4639 C   0  0  0  0  0  0  0  0  0  0  0  0
   -3.6159    2.9396    0.9200 H   0  0  0  0  0  0  0  0  0  0  0  0
    0.0641    2.4609    0.3507 H   0  0  0  0  0  0  0  0  0  0  0  0
    1.7357    0.8270   -0.3403 H   0  0  0  0  0  0  0  0  0  0  0  0
    1.1233   -1.5231   -0.8662 H   0  0  0  0  0  0  0  0  0  0  0  0
   -1.2744   -2.2330   -0.6848 H   0  0  0  0  0  0  0  0  0  0  0  0
   -5.5951    3.0514    0.1083 S   0  0  0  0  0  0  0  0  0  0  0  0
   -4.3837    3.5386    1.0444 O   0  0  0  0  0  0  0  0  0  0  0  0
   -5.5786    1.6070   -0.0115 O   0  0  0  0  0  0  0  0  0  0  0  0
   -6.7568    3.8010    0.5394 O   0  0  0  0  0  0  0  0  0  0  0  0
   -5.1437    3.6041   -1.3568 O   0  0  0  0  0  0  0  0  0  0  0  0
   -5.4080    4.5381   -1.4101 H   0  0  0  0  0  0  0  0  0  0  0  0
  1  2  1  0  0  0  0
  1  4  2  0  0  0  0
  2  3  1  0  0  0  0
  5  4  1  0  0  0  0
  5 10  1  0  0  0  0
  6  5  2  0  0  0  0
  7  8  2  0  0  0  0
  7  6  1  0  0  0  0
  8  1  1  0  0  0  0
  9 15  1  0  0  0  0
 11  6  1  0  0  0  0
 12  7  1  0  0  0  0
 13  8  1  0  0  0  0
 14 17  2  0  0  0  0
 14 15  1  0  0  0  0
 16 14  2  0  0  0  0
 18 14  1  0  0  0  0
 19 18  1  0  0  0  0
M  RAD  3   2   2   3   3   4   2
M  END
