Coordinates from ORCA-job PhN2+~HSO4-_B3LYPG-6-31G_dp-CH-Scan-d09-49-n800
 OpenBabel11261919183D

 19 18  0  0  0  0  0  0  0  0999 V2000
   -1.7489   -0.2762    0.8371 C   0  0  0  0  0  0  0  0  0  0  0  0
   -2.8586   -0.9359    1.3741 N   0  0  0  0  0  0  0  0  0  0  0  0
   -3.6978   -1.4797    1.8739 N   0  0  0  0  0  0  0  0  0  0  0  0
   -0.6326   -0.3527    1.6810 C   0  0  0  0  0  0  0  0  0  0  0  0
    0.4437    0.3786    1.0887 C   0  0  0  0  0  0  0  0  0  0  0  0
    0.3531    1.0556   -0.1217 C   0  0  0  0  0  0  0  0  0  0  0  0
   -0.8354    1.0355   -0.8999 C   0  0  0  0  0  0  0  0  0  0  0  0
   -1.9341    0.3467   -0.4286 C   0  0  0  0  0  0  0  0  0  0  0  0
   -3.0096    2.8266   -0.5107 H   0  0  0  0  0  0  0  0  0  0  0  0
    1.3989    0.4181    1.6141 H   0  0  0  0  0  0  0  0  0  0  0  0
    1.2117    1.6053   -0.5041 H   0  0  0  0  0  0  0  0  0  0  0  0
   -0.8635    1.5241   -1.8693 H   0  0  0  0  0  0  0  0  0  0  0  0
   -2.8601    0.2573   -0.9892 H   0  0  0  0  0  0  0  0  0  0  0  0
   -5.1402    2.5719   -0.4946 S   0  0  0  0  0  0  0  0  0  0  0  0
   -3.7725    3.4290   -0.6007 O   0  0  0  0  0  0  0  0  0  0  0  0
   -4.9172    1.4159    0.3504 O   0  0  0  0  0  0  0  0  0  0  0  0
   -6.1959    3.5368   -0.2867 O   0  0  0  0  0  0  0  0  0  0  0  0
   -5.2681    1.9712   -2.0031 O   0  0  0  0  0  0  0  0  0  0  0  0
   -5.6886    2.6472   -2.5619 H   0  0  0  0  0  0  0  0  0  0  0  0
  1  2  1  0  0  0  0
  1  4  2  0  0  0  0
  2  3  1  0  0  0  0
  5 10  1  0  0  0  0
  5  4  1  0  0  0  0
  6  5  2  0  0  0  0
  7  8  2  0  0  0  0
  7  6  1  0  0  0  0
  8  1  1  0  0  0  0
 11  6  1  0  0  0  0
 12  7  1  0  0  0  0
 13  8  1  0  0  0  0
 14 17  2  0  0  0  0
 14 16  2  0  0  0  0
 15  9  1  0  0  0  0
 15 14  1  0  0  0  0
 18 14  1  0  0  0  0
 19 18  1  0  0  0  0
M  RAD  3   2   2   3   3   4   2
M  END
