Coordinates from ORCA-job PhN2+~HSO4-_B3LYPG-6-31G_dp-CH-Scan-d09-49-n800
 OpenBabel11261919183D

 19 18  0  0  0  0  0  0  0  0999 V2000
   -1.6490   -0.2739   -0.0304 C   0  0  0  0  0  0  0  0  0  0  0  0
   -3.0045   -0.5680    0.1142 N   0  0  0  0  0  0  0  0  0  0  0  0
   -4.0987   -0.7516    0.2571 N   0  0  0  0  0  0  0  0  0  0  0  0
   -1.3284    1.0294    0.3820 C   0  0  0  0  0  0  0  0  0  0  0  0
    0.0701    1.2411    0.2075 C   0  0  0  0  0  0  0  0  0  0  0  0
    0.9463    0.2848   -0.2960 C   0  0  0  0  0  0  0  0  0  0  0  0
    0.5002   -1.0047   -0.6801 C   0  0  0  0  0  0  0  0  0  0  0  0
   -0.8345   -1.3166   -0.5520 C   0  0  0  0  0  0  0  0  0  0  0  0
   -4.1534    3.5643    1.2283 H   0  0  0  0  0  0  0  0  0  0  0  0
    0.4911    2.2093    0.4823 H   0  0  0  0  0  0  0  0  0  0  0  0
    2.0043    0.5192   -0.4039 H   0  0  0  0  0  0  0  0  0  0  0  0
    1.2013   -1.7362   -1.0688 H   0  0  0  0  0  0  0  0  0  0  0  0
   -1.2356   -2.2877   -0.8297 H   0  0  0  0  0  0  0  0  0  0  0  0
   -5.9209    3.1960    0.0762 S   0  0  0  0  0  0  0  0  0  0  0  0
   -5.0174    4.0051    1.1498 O   0  0  0  0  0  0  0  0  0  0  0  0
   -5.5519    1.7968    0.0975 O   0  0  0  0  0  0  0  0  0  0  0  0
   -7.2711    3.6804    0.2644 O   0  0  0  0  0  0  0  0  0  0  0  0
   -5.3564    3.7721   -1.3361 O   0  0  0  0  0  0  0  0  0  0  0  0
   -5.8070    4.6154   -1.5138 H   0  0  0  0  0  0  0  0  0  0  0  0
  1  2  1  0  0  0  0
  1  4  2  0  0  0  0
  2  3  1  0  0  0  0
  5  4  1  0  0  0  0
  5 10  1  0  0  0  0
  6  5  2  0  0  0  0
  7  8  2  0  0  0  0
  7  6  1  0  0  0  0
  8  1  1  0  0  0  0
 11  6  1  0  0  0  0
 12  7  1  0  0  0  0
 13  8  1  0  0  0  0
 14 16  2  0  0  0  0
 14 17  2  0  0  0  0
 14 15  1  0  0  0  0
 15  9  1  0  0  0  0
 18 14  1  0  0  0  0
 19 18  1  0  0  0  0
M  RAD  3   2   2   3   3   4   2
M  END
