Coordinates from ORCA-job PhN2+~HSO4-_B3LYPG-6-31G_dp-CH-Scan-d09-49-n800
 OpenBabel11261919183D

 19 18  0  0  0  0  0  0  0  0999 V2000
   -1.7069   -0.2443    0.8517 C   0  0  0  0  0  0  0  0  0  0  0  0
   -2.8469   -0.8472    1.3908 N   0  0  0  0  0  0  0  0  0  0  0  0
   -3.7102   -1.3492    1.8939 N   0  0  0  0  0  0  0  0  0  0  0  0
   -0.5897   -0.3965    1.6844 C   0  0  0  0  0  0  0  0  0  0  0  0
    0.5247    0.2681    1.0862 C   0  0  0  0  0  0  0  0  0  0  0  0
    0.4668    0.9523   -0.1225 C   0  0  0  0  0  0  0  0  0  0  0  0
   -0.7286    1.0170   -0.8858 C   0  0  0  0  0  0  0  0  0  0  0  0
   -1.8652    0.4013   -0.4060 C   0  0  0  0  0  0  0  0  0  0  0  0
   -3.1739    3.0339   -0.4700 H   0  0  0  0  0  0  0  0  0  0  0  0
    1.4852    0.2456    1.6031 H   0  0  0  0  0  0  0  0  0  0  0  0
    1.3562    1.4447   -0.5125 H   0  0  0  0  0  0  0  0  0  0  0  0
   -0.7371    1.5200   -1.8480 H   0  0  0  0  0  0  0  0  0  0  0  0
   -2.8031    0.3813   -0.9532 H   0  0  0  0  0  0  0  0  0  0  0  0
   -5.2645    2.5583   -0.5237 S   0  0  0  0  0  0  0  0  0  0  0  0
   -3.9898    3.5562   -0.5762 O   0  0  0  0  0  0  0  0  0  0  0  0
   -4.9351    1.4109    0.2979 O   0  0  0  0  0  0  0  0  0  0  0  0
   -6.4182    3.4026   -0.3145 O   0  0  0  0  0  0  0  0  0  0  0  0
   -5.2983    1.9901   -2.0480 O   0  0  0  0  0  0  0  0  0  0  0  0
   -5.7810    2.6303   -2.5989 H   0  0  0  0  0  0  0  0  0  0  0  0
  1  2  1  0  0  0  0
  1  4  2  0  0  0  0
  2  3  1  0  0  0  0
  5 10  1  0  0  0  0
  5  4  1  0  0  0  0
  6  5  2  0  0  0  0
  7  8  2  0  0  0  0
  7  6  1  0  0  0  0
  8  1  1  0  0  0  0
 11  6  1  0  0  0  0
 12  7  1  0  0  0  0
 13  8  1  0  0  0  0
 14 17  2  0  0  0  0
 14 16  2  0  0  0  0
 15 14  1  0  0  0  0
 15  9  1  0  0  0  0
 18 14  1  0  0  0  0
 19 18  1  0  0  0  0
M  RAD  3   2   2   3   3   4   2
M  END
