Coordinates from ORCA-job PhN2+~HSO4-_B3LYPG-6-31G_dp-CH-Scan-d09-49-n800
 OpenBabel11261919183D

 19 18  0  0  0  0  0  0  0  0999 V2000
   -1.7964   -0.2345   -0.0505 C   0  0  0  0  0  0  0  0  0  0  0  0
   -3.1343   -0.5997    0.0683 N   0  0  0  0  0  0  0  0  0  0  0  0
   -4.2173   -0.8528    0.1821 N   0  0  0  0  0  0  0  0  0  0  0  0
   -1.5449    1.1030    0.3010 C   0  0  0  0  0  0  0  0  0  0  0  0
   -0.1566    1.3783    0.1548 C   0  0  0  0  0  0  0  0  0  0  0  0
    0.7803    0.4428   -0.2736 C   0  0  0  0  0  0  0  0  0  0  0  0
    0.4092   -0.8840   -0.6021 C   0  0  0  0  0  0  0  0  0  0  0  0
   -0.9120   -1.2560   -0.4944 C   0  0  0  0  0  0  0  0  0  0  0  0
   -3.7957    3.1576    1.0481 H   0  0  0  0  0  0  0  0  0  0  0  0
    0.2061    2.3791    0.3905 H   0  0  0  0  0  0  0  0  0  0  0  0
    1.8280    0.7249   -0.3636 H   0  0  0  0  0  0  0  0  0  0  0  0
    1.1558   -1.5982   -0.9338 H   0  0  0  0  0  0  0  0  0  0  0  0
   -1.2557   -2.2586   -0.7335 H   0  0  0  0  0  0  0  0  0  0  0  0
   -5.7129    3.1042    0.0965 S   0  0  0  0  0  0  0  0  0  0  0  0
   -4.5999    3.7095    1.0951 O   0  0  0  0  0  0  0  0  0  0  0  0
   -5.5746    1.6642    0.0262 O   0  0  0  0  0  0  0  0  0  0  0  0
   -6.9494    3.7758    0.4361 O   0  0  0  0  0  0  0  0  0  0  0  0
   -5.2082    3.6550   -1.3498 O   0  0  0  0  0  0  0  0  0  0  0  0
   -5.5370    4.5647   -1.4488 H   0  0  0  0  0  0  0  0  0  0  0  0
  1  2  1  0  0  0  0
  1  4  2  0  0  0  0
  2  3  1  0  0  0  0
  5  4  1  0  0  0  0
  5 10  1  0  0  0  0
  6  5  2  0  0  0  0
  7  8  2  0  0  0  0
  7  6  1  0  0  0  0
  8  1  1  0  0  0  0
  9 15  1  0  0  0  0
 11  6  1  0  0  0  0
 12  7  1  0  0  0  0
 13  8  1  0  0  0  0
 14 17  2  0  0  0  0
 14 15  1  0  0  0  0
 16 14  2  0  0  0  0
 18 14  1  0  0  0  0
 19 18  1  0  0  0  0
M  RAD  3   2   2   3   3   4   2
M  END
