Coordinates from ORCA-job PhN2+~HSO4-_B3LYPG-6-31G_dp-CH-Scan-d09-49-n800
 OpenBabel11261919183D

 19 18  0  0  0  0  0  0  0  0999 V2000
   -1.8516   -0.2165   -0.0541 C   0  0  0  0  0  0  0  0  0  0  0  0
   -3.1823   -0.6054    0.0570 N   0  0  0  0  0  0  0  0  0  0  0  0
   -4.2599   -0.8826    0.1614 N   0  0  0  0  0  0  0  0  0  0  0  0
   -1.6204    1.1300    0.2783 C   0  0  0  0  0  0  0  0  0  0  0  0
   -0.2370    1.4270    0.1409 C   0  0  0  0  0  0  0  0  0  0  0  0
    0.7187    0.5000   -0.2647 C   0  0  0  0  0  0  0  0  0  0  0  0
    0.3713   -0.8367   -0.5761 C   0  0  0  0  0  0  0  0  0  0  0  0
   -0.9450   -1.2281   -0.4744 C   0  0  0  0  0  0  0  0  0  0  0  0
   -3.6700    3.0068    0.9644 H   0  0  0  0  0  0  0  0  0  0  0  0
    0.1062    2.4369    0.3649 H   0  0  0  0  0  0  0  0  0  0  0  0
    1.7623    0.7977   -0.3492 H   0  0  0  0  0  0  0  0  0  0  0  0
    1.1316   -1.5440   -0.8906 H   0  0  0  0  0  0  0  0  0  0  0  0
   -1.2700   -2.2395   -0.7018 H   0  0  0  0  0  0  0  0  0  0  0  0
   -5.6300    3.0664    0.1045 S   0  0  0  0  0  0  0  0  0  0  0  0
   -4.4498    3.5916    1.0634 O   0  0  0  0  0  0  0  0  0  0  0  0
   -5.5778    1.6218    0.0030 O   0  0  0  0  0  0  0  0  0  0  0  0
   -6.8158    3.7959    0.5024 O   0  0  0  0  0  0  0  0  0  0  0  0
   -5.1565    3.6135   -1.3550 O   0  0  0  0  0  0  0  0  0  0  0  0
   -5.4396    4.5409   -1.4254 H   0  0  0  0  0  0  0  0  0  0  0  0
  1  2  1  0  0  0  0
  1  4  2  0  0  0  0
  2  3  1  0  0  0  0
  5  4  1  0  0  0  0
  5 10  1  0  0  0  0
  6  5  2  0  0  0  0
  7  8  2  0  0  0  0
  7  6  1  0  0  0  0
  8  1  1  0  0  0  0
  9 15  1  0  0  0  0
 11  6  1  0  0  0  0
 12  7  1  0  0  0  0
 13  8  1  0  0  0  0
 14 17  2  0  0  0  0
 14 15  1  0  0  0  0
 16 14  2  0  0  0  0
 18 14  1  0  0  0  0
 19 18  1  0  0  0  0
M  RAD  3   2   2   3   3   4   2
M  END
