Coordinates from ORCA-job PhN2+~HSO4-_B3LYPG-6-31G_dp-CH-Scan-d09-49-n800
 OpenBabel11261919183D

 19 18  0  0  0  0  0  0  0  0999 V2000
   -1.6165   -0.2800   -0.0078 C   0  0  0  0  0  0  0  0  0  0  0  0
   -2.9733   -0.5589    0.1581 N   0  0  0  0  0  0  0  0  0  0  0  0
   -4.0673   -0.7280    0.3199 N   0  0  0  0  0  0  0  0  0  0  0  0
   -1.2732    1.0101    0.4256 C   0  0  0  0  0  0  0  0  0  0  0  0
    0.1244    1.2091    0.2280 C   0  0  0  0  0  0  0  0  0  0  0  0
    0.9788    0.2536   -0.3130 C   0  0  0  0  0  0  0  0  0  0  0  0
    0.5099   -1.0223   -0.7150 C   0  0  0  0  0  0  0  0  0  0  0  0
   -0.8258   -1.3214   -0.5671 C   0  0  0  0  0  0  0  0  0  0  0  0
   -4.2591    3.6373    1.2850 H   0  0  0  0  0  0  0  0  0  0  0  0
    0.5624    2.1664    0.5146 H   0  0  0  0  0  0  0  0  0  0  0  0
    2.0373    0.4779   -0.4373 H   0  0  0  0  0  0  0  0  0  0  0  0
    1.1945   -1.7536   -1.1324 H   0  0  0  0  0  0  0  0  0  0  0  0
   -1.2438   -2.2819   -0.8565 H   0  0  0  0  0  0  0  0  0  0  0  0
   -5.9617    3.2108    0.0581 S   0  0  0  0  0  0  0  0  0  0  0  0
   -5.1297    4.0547    1.1636 O   0  0  0  0  0  0  0  0  0  0  0  0
   -5.5451    1.8257    0.1036 O   0  0  0  0  0  0  0  0  0  0  0  0
   -7.3340    3.6498    0.1890 O   0  0  0  0  0  0  0  0  0  0  0  0
   -5.3602    3.8004   -1.3328 O   0  0  0  0  0  0  0  0  0  0  0  0
   -5.8334    4.6257   -1.5348 H   0  0  0  0  0  0  0  0  0  0  0  0
  1  2  1  0  0  0  0
  1  4  2  0  0  0  0
  2  3  1  0  0  0  0
  5  4  1  0  0  0  0
  5 10  1  0  0  0  0
  6  5  2  0  0  0  0
  7  8  2  0  0  0  0
  7  6  1  0  0  0  0
  8  1  1  0  0  0  0
 11  6  1  0  0  0  0
 12  7  1  0  0  0  0
 13  8  1  0  0  0  0
 14 16  2  0  0  0  0
 14 17  2  0  0  0  0
 14 15  1  0  0  0  0
 15  9  1  0  0  0  0
 18 14  1  0  0  0  0
 19 18  1  0  0  0  0
M  RAD  3   2   2   3   3   4   2
M  END
