Coordinates from ORCA-job PhN2+~HSO4-_B3LYPG-6-31G_dp-CH-Scan-d09-49-n800
 OpenBabel11261919183D

 19 18  0  0  0  0  0  0  0  0999 V2000
   -2.0155    0.3408   -0.0037 C   0  0  0  0  0  0  0  0  0  0  0  0
   -3.4058    0.1826    0.0584 N   0  0  0  0  0  0  0  0  0  0  0  0
   -4.4050   -0.3298    0.0924 N   0  0  0  0  0  0  0  0  0  0  0  0
   -1.4227    1.5453    0.3905 C   0  0  0  0  0  0  0  0  0  0  0  0
   -0.0317    1.6127    0.3365 C   0  0  0  0  0  0  0  0  0  0  0  0
    0.7234    0.5245   -0.1072 C   0  0  0  0  0  0  0  0  0  0  0  0
    0.0993   -0.6651   -0.5009 C   0  0  0  0  0  0  0  0  0  0  0  0
   -1.2842   -0.7741   -0.4477 C   0  0  0  0  0  0  0  0  0  0  0  0
   -1.9556    2.2635    0.6636 H   0  0  0  0  0  0  0  0  0  0  0  0
    0.4609    2.5314    0.6376 H   0  0  0  0  0  0  0  0  0  0  0  0
    1.8057    0.6010   -0.1500 H   0  0  0  0  0  0  0  0  0  0  0  0
    0.6895   -1.5075   -0.8459 H   0  0  0  0  0  0  0  0  0  0  0  0
   -1.7955   -1.6836   -0.7423 H   0  0  0  0  0  0  0  0  0  0  0  0
   -5.4033    2.6802    0.0266 S   0  0  0  0  0  0  0  0  0  0  0  0
   -3.9164    2.5452   -0.0587 O   0  0  0  0  0  0  0  0  0  0  0  0
   -6.0319    1.3529    0.2655 O   0  0  0  0  0  0  0  0  0  0  0  0
   -5.8885    3.7804    0.8639 O   0  0  0  0  0  0  0  0  0  0  0  0
   -5.8342    3.0990   -1.5180 O   0  0  0  0  0  0  0  0  0  0  0  0
   -6.4043    3.8760   -1.4118 H   0  0  0  0  0  0  0  0  0  0  0  0
  1  2  1  0  0  0  0
  1  4  2  0  0  0  0
  2  3  1  0  0  0  0
  4  9  1  0  0  0  0
  5  4  1  0  0  0  0
  5 10  1  0  0  0  0
  6  5  2  0  0  0  0
  7  8  2  0  0  0  0
  7  6  1  0  0  0  0
  8  1  1  0  0  0  0
 11  6  1  0  0  0  0
 12  7  1  0  0  0  0
 13  8  1  0  0  0  0
 14 16  2  0  0  0  0
 14 17  1  0  0  0  0
 15 14  2  0  0  0  0
 18 19  1  0  0  0  0
 18 14  1  0  0  0  0
M  RAD  3   2   2   3   3  17   2
M  END
