Coordinates from ORCA-job PhN2+~HSO4-_B3LYPG-6-31G_dp-CH-Scan-d09-49-n800
 OpenBabel11261919183D

 19 18  0  0  0  0  0  0  0  0999 V2000
   -1.8051   -0.2319   -0.0500 C   0  0  0  0  0  0  0  0  0  0  0  0
   -3.1417   -0.6010    0.0686 N   0  0  0  0  0  0  0  0  0  0  0  0
   -4.2237   -0.8580    0.1817 N   0  0  0  0  0  0  0  0  0  0  0  0
   -1.5566    1.1069    0.2994 C   0  0  0  0  0  0  0  0  0  0  0  0
   -0.1691    1.3857    0.1534 C   0  0  0  0  0  0  0  0  0  0  0  0
    0.7704    0.4519   -0.2732 C   0  0  0  0  0  0  0  0  0  0  0  0
    0.4028   -0.8762   -0.5997 C   0  0  0  0  0  0  0  0  0  0  0  0
   -0.9176   -1.2514   -0.4919 C   0  0  0  0  0  0  0  0  0  0  0  0
   -3.7776    3.1358    1.0387 H   0  0  0  0  0  0  0  0  0  0  0  0
    0.1907    2.3878    0.3877 H   0  0  0  0  0  0  0  0  0  0  0  0
    1.8174    0.7366   -0.3632 H   0  0  0  0  0  0  0  0  0  0  0  0
    1.1512   -1.5891   -0.9300 H   0  0  0  0  0  0  0  0  0  0  0  0
   -1.2585   -2.2553   -0.7296 H   0  0  0  0  0  0  0  0  0  0  0  0
   -5.6999    3.0980    0.0968 S   0  0  0  0  0  0  0  0  0  0  0  0
   -4.5787    3.6923    1.0919 O   0  0  0  0  0  0  0  0  0  0  0  0
   -5.5737    1.6570    0.0226 O   0  0  0  0  0  0  0  0  0  0  0  0
   -6.9301    3.7783    0.4424 O   0  0  0  0  0  0  0  0  0  0  0  0
   -5.1969    3.6478   -1.3507 O   0  0  0  0  0  0  0  0  0  0  0  0
   -5.5191    4.5601   -1.4463 H   0  0  0  0  0  0  0  0  0  0  0  0
  1  2  1  0  0  0  0
  1  4  2  0  0  0  0
  2  3  1  0  0  0  0
  5  4  1  0  0  0  0
  5 10  1  0  0  0  0
  6  5  2  0  0  0  0
  7  8  2  0  0  0  0
  7  6  1  0  0  0  0
  8  1  1  0  0  0  0
  9 15  1  0  0  0  0
 11  6  1  0  0  0  0
 12  7  1  0  0  0  0
 13  8  1  0  0  0  0
 14 17  2  0  0  0  0
 14 15  1  0  0  0  0
 16 14  2  0  0  0  0
 18 14  1  0  0  0  0
 19 18  1  0  0  0  0
M  RAD  3   2   2   3   3   4   2
M  END
