Coordinates from ORCA-job PhN2+~HSO4-_B3LYPG-6-31G_dp-CH-Scan-d09-49-n800
 OpenBabel11261919183D

 19 18  0  0  0  0  0  0  0  0999 V2000
   -2.0383    0.0250   -0.3945 C   0  0  0  0  0  0  0  0  0  0  0  0
   -3.3668   -0.2502   -0.6770 N   0  0  0  0  0  0  0  0  0  0  0  0
   -4.4673   -0.3335   -0.8441 N   0  0  0  0  0  0  0  0  0  0  0  0
   -1.7215    1.3671   -0.1282 C   0  0  0  0  0  0  0  0  0  0  0  0
   -0.3720    1.5988    0.1589 C   0  0  0  0  0  0  0  0  0  0  0  0
    0.5620    0.5614    0.1734 C   0  0  0  0  0  0  0  0  0  0  0  0
    0.1870   -0.7650   -0.1065 C   0  0  0  0  0  0  0  0  0  0  0  0
   -1.1326   -1.0564   -0.4019 C   0  0  0  0  0  0  0  0  0  0  0  0
   -2.6675    2.3301   -0.1669 H   0  0  0  0  0  0  0  0  0  0  0  0
   -0.0509    2.6128    0.3776 H   0  0  0  0  0  0  0  0  0  0  0  0
    1.6013    0.7778    0.4046 H   0  0  0  0  0  0  0  0  0  0  0  0
    0.9258   -1.5589   -0.0919 H   0  0  0  0  0  0  0  0  0  0  0  0
   -1.4650   -2.0650   -0.6233 H   0  0  0  0  0  0  0  0  0  0  0  0
   -5.0237    2.9916    0.2464 S   0  0  0  0  0  0  0  0  0  0  0  0
   -3.6541    3.3495   -0.2832 O   0  0  0  0  0  0  0  0  0  0  0  0
   -5.0898    1.5541    0.6072 O   0  0  0  0  0  0  0  0  0  0  0  0
   -5.5701    3.9380    1.2209 O   0  0  0  0  0  0  0  0  0  0  0  0
   -5.9807    3.1489   -1.0978 O   0  0  0  0  0  0  0  0  0  0  0  0
   -6.6913    3.7494   -0.8249 H   0  0  0  0  0  0  0  0  0  0  0  0
  1  4  1  0  0  0  0
  2  1  1  0  0  0  0
  3  2  1  0  0  0  0
  4  5  2  0  0  0  0
  5  6  1  0  0  0  0
  5 10  1  0  0  0  0
  6 11  1  0  0  0  0
  7 12  1  0  0  0  0
  7  6  2  0  0  0  0
  8  1  2  0  0  0  0
  8  7  1  0  0  0  0
  9  4  1  0  0  0  0
 13  8  1  0  0  0  0
 14 16  2  0  0  0  0
 14 17  1  0  0  0  0
 15 14  2  0  0  0  0
 18 19  1  0  0  0  0
 18 14  1  0  0  0  0
M  RAD  3   2   2   3   3  17   2
M  END
