Coordinates from ORCA-job PhN2+~HSO4-_B3LYPG-6-31G_dp-CH-Scan-d09-49-n800
 OpenBabel11261919183D

 19 18  0  0  0  0  0  0  0  0999 V2000
   -1.9523   -0.1867   -0.0577 C   0  0  0  0  0  0  0  0  0  0  0  0
   -3.2682   -0.6200    0.0422 N   0  0  0  0  0  0  0  0  0  0  0  0
   -4.3346   -0.9390    0.1332 N   0  0  0  0  0  0  0  0  0  0  0  0
   -1.7592    1.1752    0.2379 C   0  0  0  0  0  0  0  0  0  0  0  0
   -0.3864    1.5130    0.1145 C   0  0  0  0  0  0  0  0  0  0  0  0
    0.6034    0.6041   -0.2490 C   0  0  0  0  0  0  0  0  0  0  0  0
    0.3005   -0.7492   -0.5273 C   0  0  0  0  0  0  0  0  0  0  0  0
   -1.0054   -1.1774   -0.4346 C   0  0  0  0  0  0  0  0  0  0  0  0
   -3.4516    2.7239    0.7997 H   0  0  0  0  0  0  0  0  0  0  0  0
   -0.0806    2.5389    0.3153 H   0  0  0  0  0  0  0  0  0  0  0  0
    1.6385    0.9313   -0.3248 H   0  0  0  0  0  0  0  0  0  0  0  0
    1.0857   -1.4424   -0.8102 H   0  0  0  0  0  0  0  0  0  0  0  0
   -1.2956   -2.2040   -0.6386 H   0  0  0  0  0  0  0  0  0  0  0  0
   -5.4681    2.9975    0.1159 S   0  0  0  0  0  0  0  0  0  0  0  0
   -4.1832    3.3685    0.9890 O   0  0  0  0  0  0  0  0  0  0  0  0
   -5.5631    1.5589   -0.0509 O   0  0  0  0  0  0  0  0  0  0  0  0
   -6.5579    3.8044    0.6272 O   0  0  0  0  0  0  0  0  0  0  0  0
   -5.0667    3.5641   -1.3615 O   0  0  0  0  0  0  0  0  0  0  0  0
   -5.2710    4.5142   -1.3713 H   0  0  0  0  0  0  0  0  0  0  0  0
  1  2  1  0  0  0  0
  1  4  2  0  0  0  0
  2  3  1  0  0  0  0
  5  4  1  0  0  0  0
  5 10  1  0  0  0  0
  6  5  2  0  0  0  0
  7  8  2  0  0  0  0
  7  6  1  0  0  0  0
  8  1  1  0  0  0  0
  9 15  1  0  0  0  0
 11  6  1  0  0  0  0
 12  7  1  0  0  0  0
 13  8  1  0  0  0  0
 14 17  2  0  0  0  0
 14 15  1  0  0  0  0
 16 14  2  0  0  0  0
 18 14  1  0  0  0  0
 19 18  1  0  0  0  0
M  RAD  3   2   2   3   3   4   2
M  END
