Coordinates from ORCA-job PhN2+~HSO4-_B3LYPG-6-31G_dp-CH-Scan-d09-49-n800
 OpenBabel11261919183D

 19 18  0  0  0  0  0  0  0  0999 V2000
   -2.0515   -0.0872   -0.2451 C   0  0  0  0  0  0  0  0  0  0  0  0
   -3.3727   -0.4970   -0.3530 N   0  0  0  0  0  0  0  0  0  0  0  0
   -4.4434   -0.7998   -0.4352 N   0  0  0  0  0  0  0  0  0  0  0  0
   -1.8520    1.2789    0.0297 C   0  0  0  0  0  0  0  0  0  0  0  0
   -0.4729    1.5815    0.1176 C   0  0  0  0  0  0  0  0  0  0  0  0
    0.5346    0.6343   -0.0493 C   0  0  0  0  0  0  0  0  0  0  0  0
    0.2362   -0.7176   -0.3252 C   0  0  0  0  0  0  0  0  0  0  0  0
   -1.0817   -1.1074   -0.4298 C   0  0  0  0  0  0  0  0  0  0  0  0
   -3.0683    2.5383    0.2970 H   0  0  0  0  0  0  0  0  0  0  0  0
   -0.1798    2.6078    0.3300 H   0  0  0  0  0  0  0  0  0  0  0  0
    1.5772    0.9333    0.0333 H   0  0  0  0  0  0  0  0  0  0  0  0
    1.0324   -1.4432   -0.4540 H   0  0  0  0  0  0  0  0  0  0  0  0
   -1.3669   -2.1335   -0.6417 H   0  0  0  0  0  0  0  0  0  0  0  0
   -5.2224    2.9755    0.3218 S   0  0  0  0  0  0  0  0  0  0  0  0
   -3.7108    3.3535    0.5077 O   0  0  0  0  0  0  0  0  0  0  0  0
   -5.4158    1.5425    0.5066 O   0  0  0  0  0  0  0  0  0  0  0  0
   -6.0332    3.9522    1.0282 O   0  0  0  0  0  0  0  0  0  0  0  0
   -5.4650    3.2097   -1.2851 O   0  0  0  0  0  0  0  0  0  0  0  0
   -5.6597    4.1536   -1.4048 H   0  0  0  0  0  0  0  0  0  0  0  0
  1  4  2  0  0  0  0
  2  1  1  0  0  0  0
  3  2  1  0  0  0  0
  4  5  1  0  0  0  0
  5 10  1  0  0  0  0
  6 11  1  0  0  0  0
  6  5  2  0  0  0  0
  7  6  1  0  0  0  0
  8  7  2  0  0  0  0
  8  1  1  0  0  0  0
  9 15  1  0  0  0  0
 12  7  1  0  0  0  0
 13  8  1  0  0  0  0
 14 16  2  0  0  0  0
 14 15  1  0  0  0  0
 14 17  2  0  0  0  0
 18 14  1  0  0  0  0
 19 18  1  0  0  0  0
M  RAD  3   2   2   3   3   4   2
M  END
