Coordinates from ORCA-job PhN2+~HSO4-_B3LYPG-6-31G_dp-CH-Scan-d09-49-n800
 OpenBabel11261919183D

 19 18  0  0  0  0  0  0  0  0999 V2000
   -1.6323   -0.2776   -0.0184 C   0  0  0  0  0  0  0  0  0  0  0  0
   -2.9885   -0.5638    0.1377 N   0  0  0  0  0  0  0  0  0  0  0  0
   -4.0827   -0.7394    0.2911 N   0  0  0  0  0  0  0  0  0  0  0  0
   -1.3004    1.0190    0.4052 C   0  0  0  0  0  0  0  0  0  0  0  0
    0.0977    1.2246    0.2181 C   0  0  0  0  0  0  0  0  0  0  0  0
    0.9627    0.2689   -0.3054 C   0  0  0  0  0  0  0  0  0  0  0  0
    0.5051   -1.0137   -0.6989 C   0  0  0  0  0  0  0  0  0  0  0  0
   -0.8300   -1.3194   -0.5600 C   0  0  0  0  0  0  0  0  0  0  0  0
   -4.2091    3.6035    1.2601 H   0  0  0  0  0  0  0  0  0  0  0  0
    0.5273    2.1873    0.4990 H   0  0  0  0  0  0  0  0  0  0  0  0
    2.0209    0.4984   -0.4222 H   0  0  0  0  0  0  0  0  0  0  0  0
    1.1978   -1.7449   -1.1029 H   0  0  0  0  0  0  0  0  0  0  0  0
   -1.2397   -2.2852   -0.8439 H   0  0  0  0  0  0  0  0  0  0  0  0
   -5.9415    3.2035    0.0664 S   0  0  0  0  0  0  0  0  0  0  0  0
   -5.0769    4.0318    1.1581 O   0  0  0  0  0  0  0  0  0  0  0  0
   -5.5462    1.8119    0.1011 O   0  0  0  0  0  0  0  0  0  0  0  0
   -7.3042    3.6634    0.2228 O   0  0  0  0  0  0  0  0  0  0  0  0
   -5.3561    3.7867   -1.3342 O   0  0  0  0  0  0  0  0  0  0  0  0
   -5.8193    4.6202   -1.5254 H   0  0  0  0  0  0  0  0  0  0  0  0
  1  2  1  0  0  0  0
  1  4  2  0  0  0  0
  2  3  1  0  0  0  0
  5  4  1  0  0  0  0
  5 10  1  0  0  0  0
  6  5  2  0  0  0  0
  7  8  2  0  0  0  0
  7  6  1  0  0  0  0
  8  1  1  0  0  0  0
 11  6  1  0  0  0  0
 12  7  1  0  0  0  0
 13  8  1  0  0  0  0
 14 16  2  0  0  0  0
 14 17  2  0  0  0  0
 14 15  1  0  0  0  0
 15  9  1  0  0  0  0
 18 14  1  0  0  0  0
 19 18  1  0  0  0  0
M  RAD  3   2   2   3   3   4   2
M  END
