Coordinates from ORCA-job PhN2+~HSO4-_B3LYPG-6-31G_dp-CH-Scan-d09-49-n800
 OpenBabel11261919183D

 19 18  0  0  0  0  0  0  0  0999 V2000
   -2.0584    0.0214   -0.3811 C   0  0  0  0  0  0  0  0  0  0  0  0
   -3.3857   -0.2773   -0.6433 N   0  0  0  0  0  0  0  0  0  0  0  0
   -4.4806   -0.4134   -0.8050 N   0  0  0  0  0  0  0  0  0  0  0  0
   -1.7591    1.3670   -0.1102 C   0  0  0  0  0  0  0  0  0  0  0  0
   -0.4055    1.6108    0.1534 C   0  0  0  0  0  0  0  0  0  0  0  0
    0.5431    0.5874    0.1415 C   0  0  0  0  0  0  0  0  0  0  0  0
    0.1817   -0.7426   -0.1420 C   0  0  0  0  0  0  0  0  0  0  0  0
   -1.1387   -1.0495   -0.4138 C   0  0  0  0  0  0  0  0  0  0  0  0
   -2.7199    2.3374   -0.1126 H   0  0  0  0  0  0  0  0  0  0  0  0
   -0.0927    2.6269    0.3754 H   0  0  0  0  0  0  0  0  0  0  0  0
    1.5836    0.8166    0.3547 H   0  0  0  0  0  0  0  0  0  0  0  0
    0.9316   -1.5261   -0.1479 H   0  0  0  0  0  0  0  0  0  0  0  0
   -1.4619   -2.0608   -0.6369 H   0  0  0  0  0  0  0  0  0  0  0  0
   -5.0475    2.9531    0.3117 S   0  0  0  0  0  0  0  0  0  0  0  0
   -3.6607    3.3472   -0.1683 O   0  0  0  0  0  0  0  0  0  0  0  0
   -5.0905    1.5227    0.6785 O   0  0  0  0  0  0  0  0  0  0  0  0
   -5.6329    3.9221    1.2368 O   0  0  0  0  0  0  0  0  0  0  0  0
   -5.9749    3.0185   -1.0601 O   0  0  0  0  0  0  0  0  0  0  0  0
   -6.3466    3.9142   -1.0818 H   0  0  0  0  0  0  0  0  0  0  0  0
  1  4  1  0  0  0  0
  2  1  1  0  0  0  0
  3  2  1  0  0  0  0
  4  5  2  0  0  0  0
  5 10  1  0  0  0  0
  6  5  1  0  0  0  0
  6 11  1  0  0  0  0
  7  6  2  0  0  0  0
  8  1  2  0  0  0  0
  8  7  1  0  0  0  0
  9  4  1  0  0  0  0
 12  7  1  0  0  0  0
 13  8  1  0  0  0  0
 14 16  2  0  0  0  0
 14 17  1  0  0  0  0
 15 14  2  0  0  0  0
 18 14  1  0  0  0  0
 19 18  1  0  0  0  0
M  RAD  3   2   2   3   3  17   2
M  END
