Coordinates from ORCA-job PhN2+~HSO4-_B3LYPG-6-31G_dp-CH-Scan-d09-49-n800
 OpenBabel11261919183D

 19 18  0  0  0  0  0  0  0  0999 V2000
   -1.7147   -0.2523    0.8499 C   0  0  0  0  0  0  0  0  0  0  0  0
   -2.8481   -0.8673    1.3895 N   0  0  0  0  0  0  0  0  0  0  0  0
   -3.7063   -1.3795    1.8910 N   0  0  0  0  0  0  0  0  0  0  0  0
   -0.5960   -0.3905    1.6832 C   0  0  0  0  0  0  0  0  0  0  0  0
    0.5100    0.2889    1.0854 C   0  0  0  0  0  0  0  0  0  0  0  0
    0.4435    0.9736   -0.1226 C   0  0  0  0  0  0  0  0  0  0  0  0
   -0.7521    1.0220   -0.8872 C   0  0  0  0  0  0  0  0  0  0  0  0
   -1.8806    0.3905   -0.4084 C   0  0  0  0  0  0  0  0  0  0  0  0
   -3.1401    2.9953   -0.4784 H   0  0  0  0  0  0  0  0  0  0  0  0
    1.4705    0.2783    1.6025 H   0  0  0  0  0  0  0  0  0  0  0  0
    1.3264    1.4782   -0.5117 H   0  0  0  0  0  0  0  0  0  0  0  0
   -0.7661    1.5235   -1.8502 H   0  0  0  0  0  0  0  0  0  0  0  0
   -2.8173    0.3568   -0.9572 H   0  0  0  0  0  0  0  0  0  0  0  0
   -5.2405    2.5624   -0.5189 S   0  0  0  0  0  0  0  0  0  0  0  0
   -3.9462    3.5336   -0.5812 O   0  0  0  0  0  0  0  0  0  0  0  0
   -4.9339    1.4138    0.3097 O   0  0  0  0  0  0  0  0  0  0  0  0
   -6.3762    3.4318   -0.3134 O   0  0  0  0  0  0  0  0  0  0  0  0
   -5.2893    1.9845   -2.0395 O   0  0  0  0  0  0  0  0  0  0  0  0
   -5.7585    2.6317   -2.5939 H   0  0  0  0  0  0  0  0  0  0  0  0
  1  2  1  0  0  0  0
  1  4  2  0  0  0  0
  2  3  1  0  0  0  0
  5 10  1  0  0  0  0
  5  4  1  0  0  0  0
  6  5  2  0  0  0  0
  7  8  2  0  0  0  0
  7  6  1  0  0  0  0
  8  1  1  0  0  0  0
 11  6  1  0  0  0  0
 12  7  1  0  0  0  0
 13  8  1  0  0  0  0
 14 17  2  0  0  0  0
 14 16  2  0  0  0  0
 15 14  1  0  0  0  0
 15  9  1  0  0  0  0
 18 14  1  0  0  0  0
 19 18  1  0  0  0  0
M  RAD  3   2   2   3   3   4   2
M  END
