Coordinates from ORCA-job PhN2+~HSO4-_B3LYPG-6-31G_dp-CH-Scan-d09-49-n800
 OpenBabel11261919183D

 19 18  0  0  0  0  0  0  0  0999 V2000
   -1.7482   -0.2758    0.8373 C   0  0  0  0  0  0  0  0  0  0  0  0
   -2.8585   -0.9345    1.3742 N   0  0  0  0  0  0  0  0  0  0  0  0
   -3.6982   -1.4777    1.8740 N   0  0  0  0  0  0  0  0  0  0  0  0
   -0.6318   -0.3538    1.6809 C   0  0  0  0  0  0  0  0  0  0  0  0
    0.4451    0.3766    1.0887 C   0  0  0  0  0  0  0  0  0  0  0  0
    0.3551    1.0540   -0.1215 C   0  0  0  0  0  0  0  0  0  0  0  0
   -0.8337    1.0355   -0.8995 C   0  0  0  0  0  0  0  0  0  0  0  0
   -1.9330    0.3477   -0.4282 C   0  0  0  0  0  0  0  0  0  0  0  0
   -3.0121    2.8303   -0.5106 H   0  0  0  0  0  0  0  0  0  0  0  0
    1.4005    0.4149    1.6139 H   0  0  0  0  0  0  0  0  0  0  0  0
    1.2142    1.6028   -0.5040 H   0  0  0  0  0  0  0  0  0  0  0  0
   -0.8615    1.5244   -1.8687 H   0  0  0  0  0  0  0  0  0  0  0  0
   -2.8592    0.2595   -0.9886 H   0  0  0  0  0  0  0  0  0  0  0  0
   -5.1423    2.5718   -0.4950 S   0  0  0  0  0  0  0  0  0  0  0  0
   -3.7760    3.4314   -0.6008 O   0  0  0  0  0  0  0  0  0  0  0  0
   -4.9174    1.4163    0.3500 O   0  0  0  0  0  0  0  0  0  0  0  0
   -6.1997    3.5349   -0.2873 O   0  0  0  0  0  0  0  0  0  0  0  0
   -5.2688    1.9709   -2.0034 O   0  0  0  0  0  0  0  0  0  0  0  0
   -5.6903    2.6462   -2.5625 H   0  0  0  0  0  0  0  0  0  0  0  0
  1  2  1  0  0  0  0
  1  4  2  0  0  0  0
  2  3  1  0  0  0  0
  5 10  1  0  0  0  0
  5  4  1  0  0  0  0
  6  5  2  0  0  0  0
  7  8  2  0  0  0  0
  7  6  1  0  0  0  0
  8  1  1  0  0  0  0
 11  6  1  0  0  0  0
 12  7  1  0  0  0  0
 13  8  1  0  0  0  0
 14 17  2  0  0  0  0
 14 16  2  0  0  0  0
 15  9  1  0  0  0  0
 15 14  1  0  0  0  0
 18 14  1  0  0  0  0
 19 18  1  0  0  0  0
M  RAD  3   2   2   3   3   4   2
M  END
