Coordinates from ORCA-job PhN2+~HSO4-_B3LYPG-6-31G_dp-CH-Scan-d09-49-n800
 OpenBabel11261919183D

 19 18  0  0  0  0  0  0  0  0999 V2000
   -1.9302   -0.1933   -0.0583 C   0  0  0  0  0  0  0  0  0  0  0  0
   -3.2495   -0.6170    0.0430 N   0  0  0  0  0  0  0  0  0  0  0  0
   -4.3187   -0.9265    0.1368 N   0  0  0  0  0  0  0  0  0  0  0  0
   -1.7293    1.1661    0.2433 C   0  0  0  0  0  0  0  0  0  0  0  0
   -0.3539    1.4948    0.1181 C   0  0  0  0  0  0  0  0  0  0  0  0
    0.6291    0.5811   -0.2517 C   0  0  0  0  0  0  0  0  0  0  0  0
    0.3170   -0.7692   -0.5354 C   0  0  0  0  0  0  0  0  0  0  0  0
   -0.9913   -1.1893   -0.4417 C   0  0  0  0  0  0  0  0  0  0  0  0
   -3.4961    2.7845    0.8308 H   0  0  0  0  0  0  0  0  0  0  0  0
   -0.0402    2.5177    0.3227 H   0  0  0  0  0  0  0  0  0  0  0  0
    1.6662    0.9019   -0.3286 H   0  0  0  0  0  0  0  0  0  0  0  0
    1.0973   -1.4660   -0.8230 H   0  0  0  0  0  0  0  0  0  0  0  0
   -1.2887   -2.2132   -0.6496 H   0  0  0  0  0  0  0  0  0  0  0  0
   -5.5049    3.0125    0.1137 S   0  0  0  0  0  0  0  0  0  0  0  0
   -4.2384    3.4144    1.0054 O   0  0  0  0  0  0  0  0  0  0  0  0
   -5.5694    1.5718   -0.0430 O   0  0  0  0  0  0  0  0  0  0  0  0
   -6.6144    3.8041    0.6054 O   0  0  0  0  0  0  0  0  0  0  0  0
   -5.0899    3.5772   -1.3596 O   0  0  0  0  0  0  0  0  0  0  0  0
   -5.3103    4.5237   -1.3794 H   0  0  0  0  0  0  0  0  0  0  0  0
  1  2  1  0  0  0  0
  1  4  2  0  0  0  0
  2  3  1  0  0  0  0
  5  4  1  0  0  0  0
  5 10  1  0  0  0  0
  6  5  2  0  0  0  0
  7  8  2  0  0  0  0
  7  6  1  0  0  0  0
  8  1  1  0  0  0  0
  9 15  1  0  0  0  0
 11  6  1  0  0  0  0
 12  7  1  0  0  0  0
 13  8  1  0  0  0  0
 14 17  2  0  0  0  0
 14 15  1  0  0  0  0
 16 14  2  0  0  0  0
 18 14  1  0  0  0  0
 19 18  1  0  0  0  0
M  RAD  3   2   2   3   3   4   2
M  END
