Coordinates from ORCA-job PhN2+~HSO4-_B3LYPG-6-31G_dp-CH-Scan-d09-49-n800
 OpenBabel11261919183D

 19 18  0  0  0  0  0  0  0  0999 V2000
   -2.0644   -0.0369   -0.3307 C   0  0  0  0  0  0  0  0  0  0  0  0
   -3.3830   -0.4108   -0.5399 N   0  0  0  0  0  0  0  0  0  0  0  0
   -4.4524   -0.6817   -0.7015 N   0  0  0  0  0  0  0  0  0  0  0  0
   -1.8345    1.3266   -0.0714 C   0  0  0  0  0  0  0  0  0  0  0  0
   -0.4648    1.6007    0.1230 C   0  0  0  0  0  0  0  0  0  0  0  0
    0.5238    0.6208    0.0605 C   0  0  0  0  0  0  0  0  0  0  0  0
    0.2063   -0.7270   -0.2077 C   0  0  0  0  0  0  0  0  0  0  0  0
   -1.1105   -1.0830   -0.4115 C   0  0  0  0  0  0  0  0  0  0  0  0
   -2.9220    2.4613    0.0433 H   0  0  0  0  0  0  0  0  0  0  0  0
   -0.1670    2.6251    0.3349 H   0  0  0  0  0  0  0  0  0  0  0  0
    1.5644    0.8922    0.2215 H   0  0  0  0  0  0  0  0  0  0  0  0
    0.9871   -1.4786   -0.2536 H   0  0  0  0  0  0  0  0  0  0  0  0
   -1.4070   -2.1059   -0.6216 H   0  0  0  0  0  0  0  0  0  0  0  0
   -5.1023    2.9628    0.3443 S   0  0  0  0  0  0  0  0  0  0  0  0
   -3.6141    3.3566    0.1541 O   0  0  0  0  0  0  0  0  0  0  0  0
   -5.2182    1.5295    0.6155 O   0  0  0  0  0  0  0  0  0  0  0  0
   -5.7821    3.9348    1.1889 O   0  0  0  0  0  0  0  0  0  0  0  0
   -5.7307    3.1361   -1.1692 O   0  0  0  0  0  0  0  0  0  0  0  0
   -6.0443    4.0526   -1.2302 H   0  0  0  0  0  0  0  0  0  0  0  0
  1  4  1  0  0  0  0
  2  1  1  0  0  0  0
  3  2  1  0  0  0  0
  4  5  2  0  0  0  0
  5 10  1  0  0  0  0
  6  5  1  0  0  0  0
  6 11  1  0  0  0  0
  7  6  2  0  0  0  0
  8  1  2  0  0  0  0
  8  7  1  0  0  0  0
  9 15  1  0  0  0  0
 12  7  1  0  0  0  0
 13  8  1  0  0  0  0
 14 16  2  0  0  0  0
 14 17  2  0  0  0  0
 15 14  1  0  0  0  0
 18 14  1  0  0  0  0
 19 18  1  0  0  0  0
M  RAD  3   2   2   3   3   4   2
M  END
