Coordinates from ORCA-job PhN2+~HSO4-_B3LYPG-6-31G_dp-CH-Scan-d09-49-n800
 OpenBabel11261919183D

 19 18  0  0  0  0  0  0  0  0999 V2000
   -1.6124   -0.2809   -0.0054 C   0  0  0  0  0  0  0  0  0  0  0  0
   -2.9694   -0.5578    0.1624 N   0  0  0  0  0  0  0  0  0  0  0  0
   -4.0632   -0.7249    0.3278 N   0  0  0  0  0  0  0  0  0  0  0  0
   -1.2663    1.0073    0.4316 C   0  0  0  0  0  0  0  0  0  0  0  0
    0.1313    1.2047    0.2317 C   0  0  0  0  0  0  0  0  0  0  0  0
    0.9830    0.2496   -0.3141 C   0  0  0  0  0  0  0  0  0  0  0  0
    0.5112   -1.0242   -0.7194 C   0  0  0  0  0  0  0  0  0  0  0  0
   -0.8246   -1.3218   -0.5697 C   0  0  0  0  0  0  0  0  0  0  0  0
   -4.2699    3.6462    1.2885 H   0  0  0  0  0  0  0  0  0  0  0  0
    0.5714    2.1604    0.5206 H   0  0  0  0  0  0  0  0  0  0  0  0
    2.0416    0.4726   -0.4399 H   0  0  0  0  0  0  0  0  0  0  0  0
    1.1939   -1.7552   -1.1405 H   0  0  0  0  0  0  0  0  0  0  0  0
   -1.2448   -2.2806   -0.8614 H   0  0  0  0  0  0  0  0  0  0  0  0
   -5.9670    3.2129    0.0565 S   0  0  0  0  0  0  0  0  0  0  0  0
   -5.1411    4.0611    1.1633 O   0  0  0  0  0  0  0  0  0  0  0  0
   -5.5453    1.8295    0.1050 O   0  0  0  0  0  0  0  0  0  0  0  0
   -7.3412    3.6472    0.1828 O   0  0  0  0  0  0  0  0  0  0  0  0
   -5.3636    3.8031   -1.3333 O   0  0  0  0  0  0  0  0  0  0  0  0
   -5.8393    4.6263   -1.5379 H   0  0  0  0  0  0  0  0  0  0  0  0
  1  2  1  0  0  0  0
  1  4  2  0  0  0  0
  2  3  1  0  0  0  0
  5  4  1  0  0  0  0
  5 10  1  0  0  0  0
  6  5  2  0  0  0  0
  7  8  2  0  0  0  0
  7  6  1  0  0  0  0
  8  1  1  0  0  0  0
 11  6  1  0  0  0  0
 12  7  1  0  0  0  0
 13  8  1  0  0  0  0
 14 16  2  0  0  0  0
 14 17  2  0  0  0  0
 14 15  1  0  0  0  0
 15  9  1  0  0  0  0
 18 14  1  0  0  0  0
 19 18  1  0  0  0  0
M  RAD  3   2   2   3   3   4   2
M  END
