Coordinates from ORCA-job PhN2+~HSO4-_B3LYPG-6-31G_dp-CH-Scan-d09-49-n800
 OpenBabel11261919183D

 19 18  0  0  0  0  0  0  0  0999 V2000
   -2.0602    0.0203   -0.3822 C   0  0  0  0  0  0  0  0  0  0  0  0
   -3.3861   -0.2824   -0.6461 N   0  0  0  0  0  0  0  0  0  0  0  0
   -4.4782   -0.4311   -0.8146 N   0  0  0  0  0  0  0  0  0  0  0  0
   -1.7640    1.3671   -0.1137 C   0  0  0  0  0  0  0  0  0  0  0  0
   -0.4103    1.6118    0.1506 C   0  0  0  0  0  0  0  0  0  0  0  0
    0.5397    0.5898    0.1410 C   0  0  0  0  0  0  0  0  0  0  0  0
    0.1803   -0.7415   -0.1402 C   0  0  0  0  0  0  0  0  0  0  0  0
   -1.1394   -1.0503   -0.4122 C   0  0  0  0  0  0  0  0  0  0  0  0
   -2.7308    2.3456   -0.1146 H   0  0  0  0  0  0  0  0  0  0  0  0
   -0.0983    2.6284    0.3715 H   0  0  0  0  0  0  0  0  0  0  0  0
    1.5799    0.8206    0.3546 H   0  0  0  0  0  0  0  0  0  0  0  0
    0.9312   -1.5241   -0.1441 H   0  0  0  0  0  0  0  0  0  0  0  0
   -1.4614   -2.0624   -0.6335 H   0  0  0  0  0  0  0  0  0  0  0  0
   -5.0436    2.9528    0.3151 S   0  0  0  0  0  0  0  0  0  0  0  0
   -3.6547    3.3481   -0.1627 O   0  0  0  0  0  0  0  0  0  0  0  0
   -5.0857    1.5228    0.6797 O   0  0  0  0  0  0  0  0  0  0  0  0
   -5.6285    3.9227    1.2393 O   0  0  0  0  0  0  0  0  0  0  0  0
   -5.9675    3.0207   -1.0585 O   0  0  0  0  0  0  0  0  0  0  0  0
   -6.3380    3.9169   -1.0807 H   0  0  0  0  0  0  0  0  0  0  0  0
  1  4  1  0  0  0  0
  2  1  1  0  0  0  0
  3  2  1  0  0  0  0
  4  5  2  0  0  0  0
  5 10  1  0  0  0  0
  6  5  1  0  0  0  0
  6 11  1  0  0  0  0
  7  6  2  0  0  0  0
  8  1  2  0  0  0  0
  8  7  1  0  0  0  0
 12  7  1  0  0  0  0
 13  8  1  0  0  0  0
 14 16  2  0  0  0  0
 14 17  2  0  0  0  0
 15  9  1  0  0  0  0
 15 14  1  0  0  0  0
 18 14  1  0  0  0  0
 19 18  1  0  0  0  0
M  RAD  3   2   2   3   3   4   2
M  END
