Coordinates from ORCA-job PhN2+~HSO4-_B3LYPG-6-31G_dp-CH-Scan-d09-49-n800
 OpenBabel11261919183D

 19 18  0  0  0  0  0  0  0  0999 V2000
   -1.6313   -0.2776   -0.0182 C   0  0  0  0  0  0  0  0  0  0  0  0
   -2.9876   -0.5634    0.1379 N   0  0  0  0  0  0  0  0  0  0  0  0
   -4.0816   -0.7388    0.2923 N   0  0  0  0  0  0  0  0  0  0  0  0
   -1.2985    1.0185    0.4062 C   0  0  0  0  0  0  0  0  0  0  0  0
    0.0996    1.2234    0.2190 C   0  0  0  0  0  0  0  0  0  0  0  0
    0.9640    0.2676   -0.3053 C   0  0  0  0  0  0  0  0  0  0  0  0
    0.5056   -1.0144   -0.6996 C   0  0  0  0  0  0  0  0  0  0  0  0
   -0.8296   -1.3195   -0.5607 C   0  0  0  0  0  0  0  0  0  0  0  0
   -4.2113    3.6063    1.2604 H   0  0  0  0  0  0  0  0  0  0  0  0
    0.5298    2.1857    0.5005 H   0  0  0  0  0  0  0  0  0  0  0  0
    2.0223    0.4967   -0.4221 H   0  0  0  0  0  0  0  0  0  0  0  0
    1.1979   -1.7457   -1.1042 H   0  0  0  0  0  0  0  0  0  0  0  0
   -1.2399   -2.2849   -0.8451 H   0  0  0  0  0  0  0  0  0  0  0  0
   -5.9430    3.2042    0.0663 S   0  0  0  0  0  0  0  0  0  0  0  0
   -5.0795    4.0338    1.1578 O   0  0  0  0  0  0  0  0  0  0  0  0
   -5.5465    1.8129    0.1015 O   0  0  0  0  0  0  0  0  0  0  0  0
   -7.3062    3.6628    0.2224 O   0  0  0  0  0  0  0  0  0  0  0  0
   -5.3580    3.7874   -1.3344 O   0  0  0  0  0  0  0  0  0  0  0  0
   -5.8219    4.6204   -1.5260 H   0  0  0  0  0  0  0  0  0  0  0  0
  1  2  1  0  0  0  0
  1  4  2  0  0  0  0
  2  3  1  0  0  0  0
  5  4  1  0  0  0  0
  5 10  1  0  0  0  0
  6  5  2  0  0  0  0
  7  8  2  0  0  0  0
  7  6  1  0  0  0  0
  8  1  1  0  0  0  0
 11  6  1  0  0  0  0
 12  7  1  0  0  0  0
 13  8  1  0  0  0  0
 14 16  2  0  0  0  0
 14 17  2  0  0  0  0
 14 15  1  0  0  0  0
 15  9  1  0  0  0  0
 18 14  1  0  0  0  0
 19 18  1  0  0  0  0
M  RAD  3   2   2   3   3   4   2
M  END
