Coordinates from ORCA-job PhN2+~HSO4-_B3LYPG-6-31G_dp-CH-Scan-d09-49-n800
 OpenBabel11261919183D

 19 18  0  0  0  0  0  0  0  0999 V2000
   -2.0672   -0.0319   -0.3366 C   0  0  0  0  0  0  0  0  0  0  0  0
   -3.3852   -0.4022   -0.5545 N   0  0  0  0  0  0  0  0  0  0  0  0
   -4.4547   -0.6683   -0.7222 N   0  0  0  0  0  0  0  0  0  0  0  0
   -1.8316    1.3311   -0.0811 C   0  0  0  0  0  0  0  0  0  0  0  0
   -0.4646    1.6051    0.1222 C   0  0  0  0  0  0  0  0  0  0  0  0
    0.5217    0.6218    0.0706 C   0  0  0  0  0  0  0  0  0  0  0  0
    0.2018   -0.7256   -0.1939 C   0  0  0  0  0  0  0  0  0  0  0  0
   -1.1147   -1.0793   -0.4058 C   0  0  0  0  0  0  0  0  0  0  0  0
   -2.8949    2.4352    0.0143 H   0  0  0  0  0  0  0  0  0  0  0  0
   -0.1678    2.6300    0.3317 H   0  0  0  0  0  0  0  0  0  0  0  0
    1.5618    0.8911    0.2377 H   0  0  0  0  0  0  0  0  0  0  0  0
    0.9806   -1.4798   -0.2308 H   0  0  0  0  0  0  0  0  0  0  0  0
   -1.4121   -2.1024   -0.6135 H   0  0  0  0  0  0  0  0  0  0  0  0
   -5.0874    2.9595    0.3392 S   0  0  0  0  0  0  0  0  0  0  0  0
   -3.6084    3.3498    0.1116 O   0  0  0  0  0  0  0  0  0  0  0  0
   -5.1997    1.5235    0.6066 O   0  0  0  0  0  0  0  0  0  0  0  0
   -5.7515    3.9230    1.2073 O   0  0  0  0  0  0  0  0  0  0  0  0
   -5.7586    3.1405   -1.1564 O   0  0  0  0  0  0  0  0  0  0  0  0
   -6.0832    4.0542   -1.1978 H   0  0  0  0  0  0  0  0  0  0  0  0
  1  4  1  0  0  0  0
  2  1  1  0  0  0  0
  3  2  1  0  0  0  0
  4  5  2  0  0  0  0
  5 10  1  0  0  0  0
  6  5  1  0  0  0  0
  6 11  1  0  0  0  0
  7  6  2  0  0  0  0
  8  1  2  0  0  0  0
  8  7  1  0  0  0  0
  9 15  1  0  0  0  0
 12  7  1  0  0  0  0
 13  8  1  0  0  0  0
 14 16  2  0  0  0  0
 14 17  2  0  0  0  0
 15 14  1  0  0  0  0
 18 14  1  0  0  0  0
 19 18  1  0  0  0  0
M  RAD  3   2   2   3   3   4   2
M  END
