Coordinates from ORCA-job PhN2+~HSO4-_B3LYPG-6-31G_dp-CH-Scan-d09-49-n800
 OpenBabel11261919183D

 19 18  0  0  0  0  0  0  0  0999 V2000
   -1.8469   -0.2182   -0.0532 C   0  0  0  0  0  0  0  0  0  0  0  0
   -3.1781   -0.6052    0.0589 N   0  0  0  0  0  0  0  0  0  0  0  0
   -4.2562   -0.8800    0.1646 N   0  0  0  0  0  0  0  0  0  0  0  0
   -1.6141    1.1275    0.2816 C   0  0  0  0  0  0  0  0  0  0  0  0
   -0.2302    1.4226    0.1427 C   0  0  0  0  0  0  0  0  0  0  0  0
    0.7237    0.4952   -0.2659 C   0  0  0  0  0  0  0  0  0  0  0  0
    0.3743   -0.8405   -0.5794 C   0  0  0  0  0  0  0  0  0  0  0  0
   -0.9423   -1.2304   -0.4767 C   0  0  0  0  0  0  0  0  0  0  0  0
   -3.6813    3.0209    0.9739 H   0  0  0  0  0  0  0  0  0  0  0  0
    0.1148    2.4316    0.3680 H   0  0  0  0  0  0  0  0  0  0  0  0
    1.7676    0.7917   -0.3513 H   0  0  0  0  0  0  0  0  0  0  0  0
    1.1333   -1.5482   -0.8962 H   0  0  0  0  0  0  0  0  0  0  0  0
   -1.2691   -2.2410   -0.7054 H   0  0  0  0  0  0  0  0  0  0  0  0
   -5.6371    3.0695    0.1034 S   0  0  0  0  0  0  0  0  0  0  0  0
   -4.4637    3.6025    1.0671 O   0  0  0  0  0  0  0  0  0  0  0  0
   -5.5771    1.6251    0.0058 O   0  0  0  0  0  0  0  0  0  0  0  0
   -6.8281    3.7943    0.4942 O   0  0  0  0  0  0  0  0  0  0  0  0
   -5.1590    3.6160   -1.3547 O   0  0  0  0  0  0  0  0  0  0  0  0
   -5.4463    4.5418   -1.4285 H   0  0  0  0  0  0  0  0  0  0  0  0
  1  2  1  0  0  0  0
  1  4  2  0  0  0  0
  2  3  1  0  0  0  0
  5  4  1  0  0  0  0
  5 10  1  0  0  0  0
  6  5  2  0  0  0  0
  7  8  2  0  0  0  0
  7  6  1  0  0  0  0
  8  1  1  0  0  0  0
  9 15  1  0  0  0  0
 11  6  1  0  0  0  0
 12  7  1  0  0  0  0
 13  8  1  0  0  0  0
 14 17  2  0  0  0  0
 14 15  1  0  0  0  0
 16 14  2  0  0  0  0
 18 14  1  0  0  0  0
 19 18  1  0  0  0  0
M  RAD  3   2   2   3   3   4   2
M  END
