Coordinates from ORCA-job PhN2+~HSO4-_B3LYPG-6-31G_dp-CH-Scan-d09-49-n800
 OpenBabel11261919183D

 19 18  0  0  0  0  0  0  0  0999 V2000
   -2.0159    0.3408   -0.0036 C   0  0  0  0  0  0  0  0  0  0  0  0
   -3.4061    0.1823    0.0585 N   0  0  0  0  0  0  0  0  0  0  0  0
   -4.4054   -0.3301    0.0926 N   0  0  0  0  0  0  0  0  0  0  0  0
   -1.4235    1.5455    0.3904 C   0  0  0  0  0  0  0  0  0  0  0  0
   -0.0326    1.6132    0.3364 C   0  0  0  0  0  0  0  0  0  0  0  0
    0.7229    0.5252   -0.1072 C   0  0  0  0  0  0  0  0  0  0  0  0
    0.0992   -0.6647   -0.5007 C   0  0  0  0  0  0  0  0  0  0  0  0
   -1.2844   -0.7740   -0.4475 C   0  0  0  0  0  0  0  0  0  0  0  0
   -1.9536    2.2597    0.6622 H   0  0  0  0  0  0  0  0  0  0  0  0
    0.4598    2.5321    0.6373 H   0  0  0  0  0  0  0  0  0  0  0  0
    1.8051    0.6020   -0.1500 H   0  0  0  0  0  0  0  0  0  0  0  0
    0.6896   -1.5069   -0.8457 H   0  0  0  0  0  0  0  0  0  0  0  0
   -1.7955   -1.6837   -0.7420 H   0  0  0  0  0  0  0  0  0  0  0  0
   -5.4028    2.6801    0.0267 S   0  0  0  0  0  0  0  0  0  0  0  0
   -3.9159    2.5447   -0.0584 O   0  0  0  0  0  0  0  0  0  0  0  0
   -6.0319    1.3531    0.2654 O   0  0  0  0  0  0  0  0  0  0  0  0
   -5.8877    3.7805    0.8640 O   0  0  0  0  0  0  0  0  0  0  0  0
   -5.8334    3.0992   -1.5179 O   0  0  0  0  0  0  0  0  0  0  0  0
   -6.4032    3.8764   -1.4118 H   0  0  0  0  0  0  0  0  0  0  0  0
  1  2  1  0  0  0  0
  1  4  2  0  0  0  0
  2  3  1  0  0  0  0
  4  9  1  0  0  0  0
  5  4  1  0  0  0  0
  5 10  1  0  0  0  0
  6  5  2  0  0  0  0
  7  8  2  0  0  0  0
  7  6  1  0  0  0  0
  8  1  1  0  0  0  0
 11  6  1  0  0  0  0
 12  7  1  0  0  0  0
 13  8  1  0  0  0  0
 14 16  2  0  0  0  0
 14 17  1  0  0  0  0
 15 14  2  0  0  0  0
 18 19  1  0  0  0  0
 18 14  1  0  0  0  0
M  RAD  3   2   2   3   3  17   2
M  END
