Coordinates from ORCA-job PhN2+~HSO4-_B3LYPG-6-31G_dp-CH-Scan-d09-49-n800
 OpenBabel11261919183D

 19 18  0  0  0  0  0  0  0  0999 V2000
   -2.0089    0.3400   -0.0079 C   0  0  0  0  0  0  0  0  0  0  0  0
   -3.3999    0.1878    0.0514 N   0  0  0  0  0  0  0  0  0  0  0  0
   -4.3999   -0.3237    0.0813 N   0  0  0  0  0  0  0  0  0  0  0  0
   -1.4120    1.5425    0.3853 C   0  0  0  0  0  0  0  0  0  0  0  0
   -0.0211    1.6074    0.3348 C   0  0  0  0  0  0  0  0  0  0  0  0
    0.7308    0.5152   -0.1051 C   0  0  0  0  0  0  0  0  0  0  0  0
    0.1038   -0.6734   -0.4981 C   0  0  0  0  0  0  0  0  0  0  0  0
   -1.2801   -0.7783   -0.4484 C   0  0  0  0  0  0  0  0  0  0  0  0
   -1.9843    2.3053    0.6695 H   0  0  0  0  0  0  0  0  0  0  0  0
    0.4742    2.5248    0.6351 H   0  0  0  0  0  0  0  0  0  0  0  0
    1.8134    0.5879   -0.1456 H   0  0  0  0  0  0  0  0  0  0  0  0
    0.6924   -1.5181   -0.8401 H   0  0  0  0  0  0  0  0  0  0  0  0
   -1.7935   -1.6869   -0.7425 H   0  0  0  0  0  0  0  0  0  0  0  0
   -5.4098    2.6826    0.0279 S   0  0  0  0  0  0  0  0  0  0  0  0
   -3.9220    2.5596   -0.0597 O   0  0  0  0  0  0  0  0  0  0  0  0
   -6.0286    1.3501    0.2644 O   0  0  0  0  0  0  0  0  0  0  0  0
   -5.9028    3.7769    0.8685 O   0  0  0  0  0  0  0  0  0  0  0  0
   -5.8461    3.1012   -1.5152 O   0  0  0  0  0  0  0  0  0  0  0  0
   -6.4211    3.8743   -1.4067 H   0  0  0  0  0  0  0  0  0  0  0  0
  1  2  1  0  0  0  0
  1  4  2  0  0  0  0
  2  3  1  0  0  0  0
  4  9  1  0  0  0  0
  5  4  1  0  0  0  0
  5 10  1  0  0  0  0
  6  5  2  0  0  0  0
  7  8  2  0  0  0  0
  7  6  1  0  0  0  0
  8  1  1  0  0  0  0
 11  6  1  0  0  0  0
 12  7  1  0  0  0  0
 13  8  1  0  0  0  0
 14 16  2  0  0  0  0
 14 17  1  0  0  0  0
 15 14  2  0  0  0  0
 18 19  1  0  0  0  0
 18 14  1  0  0  0  0
M  RAD  3   2   2   3   3  17   2
M  END
