Coordinates from ORCA-job PhN2+~HSO4-_B3LYPG-6-31G_dp-CH-Scan-d09-49-n800
 OpenBabel11261919183D

 19 18  0  0  0  0  0  0  0  0999 V2000
   -1.7285   -0.2642    0.8449 C   0  0  0  0  0  0  0  0  0  0  0  0
   -2.8519   -0.8986    1.3832 N   0  0  0  0  0  0  0  0  0  0  0  0
   -3.7021   -1.4247    1.8837 N   0  0  0  0  0  0  0  0  0  0  0  0
   -0.6097   -0.3777    1.6816 C   0  0  0  0  0  0  0  0  0  0  0  0
    0.4836    0.3245    1.0864 C   0  0  0  0  0  0  0  0  0  0  0  0
    0.4061    1.0080   -0.1214 C   0  0  0  0  0  0  0  0  0  0  0  0
   -0.7875    1.0287   -0.8909 C   0  0  0  0  0  0  0  0  0  0  0  0
   -1.9034    0.3722   -0.4155 C   0  0  0  0  0  0  0  0  0  0  0  0
   -3.0850    2.9299   -0.4953 H   0  0  0  0  0  0  0  0  0  0  0  0
    1.4427    0.3341    1.6062 H   0  0  0  0  0  0  0  0  0  0  0  0
    1.2789    1.5323   -0.5075 H   0  0  0  0  0  0  0  0  0  0  0  0
   -0.8084    1.5262   -1.8559 H   0  0  0  0  0  0  0  0  0  0  0  0
   -2.8363    0.3155   -0.9688 H   0  0  0  0  0  0  0  0  0  0  0  0
   -5.1995    2.5683   -0.5093 S   0  0  0  0  0  0  0  0  0  0  0  0
   -3.8743    3.4944   -0.5923 O   0  0  0  0  0  0  0  0  0  0  0  0
   -4.9260    1.4184    0.3289 O   0  0  0  0  0  0  0  0  0  0  0  0
   -6.3038    3.4776   -0.3047 O   0  0  0  0  0  0  0  0  0  0  0  0
   -5.2804    1.9761   -2.0235 O   0  0  0  0  0  0  0  0  0  0  0  0
   -5.7300    2.6341   -2.5814 H   0  0  0  0  0  0  0  0  0  0  0  0
  1  2  1  0  0  0  0
  1  4  2  0  0  0  0
  2  3  1  0  0  0  0
  5 10  1  0  0  0  0
  5  4  1  0  0  0  0
  6  5  2  0  0  0  0
  7  8  2  0  0  0  0
  7  6  1  0  0  0  0
  8  1  1  0  0  0  0
 11  6  1  0  0  0  0
 12  7  1  0  0  0  0
 13  8  1  0  0  0  0
 14 17  2  0  0  0  0
 14 16  2  0  0  0  0
 15 14  1  0  0  0  0
 15  9  1  0  0  0  0
 18 14  1  0  0  0  0
 19 18  1  0  0  0  0
M  RAD  3   2   2   3   3   4   2
M  END
