Coordinates from ORCA-job PhN2+~HSO4-_B3LYPG-6-31G_dp-CH-Scan-d09-49-n800
 OpenBabel11261919183D

 19 18  0  0  0  0  0  0  0  0999 V2000
   -1.9491   -0.1876   -0.0578 C   0  0  0  0  0  0  0  0  0  0  0  0
   -3.2656   -0.6195    0.0424 N   0  0  0  0  0  0  0  0  0  0  0  0
   -4.3324   -0.9372    0.1337 N   0  0  0  0  0  0  0  0  0  0  0  0
   -1.7549    1.1739    0.2387 C   0  0  0  0  0  0  0  0  0  0  0  0
   -0.3817    1.5105    0.1149 C   0  0  0  0  0  0  0  0  0  0  0  0
    0.6071    0.6008   -0.2495 C   0  0  0  0  0  0  0  0  0  0  0  0
    0.3029   -0.7520   -0.5284 C   0  0  0  0  0  0  0  0  0  0  0  0
   -1.0034   -1.1791   -0.4355 C   0  0  0  0  0  0  0  0  0  0  0  0
   -3.4580    2.7324    0.8042 H   0  0  0  0  0  0  0  0  0  0  0  0
   -0.0749    2.5359    0.3162 H   0  0  0  0  0  0  0  0  0  0  0  0
    1.6425    0.9272   -0.3255 H   0  0  0  0  0  0  0  0  0  0  0  0
    1.0874   -1.4457   -0.8120 H   0  0  0  0  0  0  0  0  0  0  0  0
   -1.2946   -2.2053   -0.6401 H   0  0  0  0  0  0  0  0  0  0  0  0
   -5.4734    2.9996    0.1155 S   0  0  0  0  0  0  0  0  0  0  0  0
   -4.1912    3.3749    0.9915 O   0  0  0  0  0  0  0  0  0  0  0  0
   -5.5641    1.5606   -0.0500 O   0  0  0  0  0  0  0  0  0  0  0  0
   -6.5660    3.8044    0.6240 O   0  0  0  0  0  0  0  0  0  0  0  0
   -5.0698    3.5660   -1.3612 O   0  0  0  0  0  0  0  0  0  0  0  0
   -5.2764    4.5157   -1.3723 H   0  0  0  0  0  0  0  0  0  0  0  0
  1  2  1  0  0  0  0
  1  4  2  0  0  0  0
  2  3  1  0  0  0  0
  5  4  1  0  0  0  0
  5 10  1  0  0  0  0
  6  5  2  0  0  0  0
  7  8  2  0  0  0  0
  7  6  1  0  0  0  0
  8  1  1  0  0  0  0
  9 15  1  0  0  0  0
 11  6  1  0  0  0  0
 12  7  1  0  0  0  0
 13  8  1  0  0  0  0
 14 17  2  0  0  0  0
 14 15  1  0  0  0  0
 16 14  2  0  0  0  0
 18 14  1  0  0  0  0
 19 18  1  0  0  0  0
M  RAD  3   2   2   3   3   4   2
M  END
