Coordinates from ORCA-job PhN2+~HSO4-_B3LYPG-6-31G_dp-CH-Scan-d09-49-n800
 OpenBabel11261919183D

 19 18  0  0  0  0  0  0  0  0999 V2000
   -1.7393   -0.2716    0.8406 C   0  0  0  0  0  0  0  0  0  0  0  0
   -2.8553   -0.9199    1.3780 N   0  0  0  0  0  0  0  0  0  0  0  0
   -3.6997   -1.4557    1.8779 N   0  0  0  0  0  0  0  0  0  0  0  0
   -0.6214   -0.3659    1.6809 C   0  0  0  0  0  0  0  0  0  0  0  0
    0.4625    0.3528    1.0875 C   0  0  0  0  0  0  0  0  0  0  0  0
    0.3775    1.0341   -0.1210 C   0  0  0  0  0  0  0  0  0  0  0  0
   -0.8138    1.0333   -0.8949 C   0  0  0  0  0  0  0  0  0  0  0  0
   -1.9202    0.3585   -0.4221 C   0  0  0  0  0  0  0  0  0  0  0  0
   -3.0437    2.8757   -0.5057 H   0  0  0  0  0  0  0  0  0  0  0  0
    1.4198    0.3782    1.6101 H   0  0  0  0  0  0  0  0  0  0  0  0
    1.2425    1.5726   -0.5048 H   0  0  0  0  0  0  0  0  0  0  0  0
   -0.8389    1.5267   -1.8619 H   0  0  0  0  0  0  0  0  0  0  0  0
   -2.8496    0.2843   -0.9793 H   0  0  0  0  0  0  0  0  0  0  0  0
   -5.1676    2.5713   -0.5014 S   0  0  0  0  0  0  0  0  0  0  0  0
   -3.8192    3.4605   -0.5989 O   0  0  0  0  0  0  0  0  0  0  0  0
   -4.9208    1.4192    0.3423 O   0  0  0  0  0  0  0  0  0  0  0  0
   -6.2460    3.5111   -0.2961 O   0  0  0  0  0  0  0  0  0  0  0  0
   -5.2742    1.9715   -2.0115 O   0  0  0  0  0  0  0  0  0  0  0  0
   -5.7081    2.6386   -2.5710 H   0  0  0  0  0  0  0  0  0  0  0  0
  1  2  1  0  0  0  0
  1  4  2  0  0  0  0
  2  3  1  0  0  0  0
  5 10  1  0  0  0  0
  5  4  1  0  0  0  0
  6  5  2  0  0  0  0
  7  8  2  0  0  0  0
  7  6  1  0  0  0  0
  8  1  1  0  0  0  0
 11  6  1  0  0  0  0
 12  7  1  0  0  0  0
 13  8  1  0  0  0  0
 14 17  2  0  0  0  0
 14 16  2  0  0  0  0
 15  9  1  0  0  0  0
 15 14  1  0  0  0  0
 18 14  1  0  0  0  0
 19 18  1  0  0  0  0
M  RAD  3   2   2   3   3   4   2
M  END
