Coordinates from ORCA-job PhN2+~HSO4-_B3LYPG-6-31G_dp-CH-Scan-d09-49-n800
 OpenBabel11261919183D

 19 18  0  0  0  0  0  0  0  0999 V2000
   -1.5889   -0.2840    0.0123 C   0  0  0  0  0  0  0  0  0  0  0  0
   -2.9466   -0.5491    0.1955 N   0  0  0  0  0  0  0  0  0  0  0  0
   -4.0399   -0.7051    0.3749 N   0  0  0  0  0  0  0  0  0  0  0  0
   -1.2244    0.9922    0.4683 C   0  0  0  0  0  0  0  0  0  0  0  0
    0.1722    1.1800    0.2521 C   0  0  0  0  0  0  0  0  0  0  0  0
    1.0064    0.2273   -0.3240 C   0  0  0  0  0  0  0  0  0  0  0  0
    0.5162   -1.0342   -0.7461 C   0  0  0  0  0  0  0  0  0  0  0  0
   -0.8201   -1.3219   -0.5826 C   0  0  0  0  0  0  0  0  0  0  0  0
   -4.3394    3.6931    1.3165 H   0  0  0  0  0  0  0  0  0  0  0  0
    0.6258    2.1258    0.5523 H   0  0  0  0  0  0  0  0  0  0  0  0
    2.0651    0.4424   -0.4612 H   0  0  0  0  0  0  0  0  0  0  0  0
    1.1857   -1.7637   -1.1906 H   0  0  0  0  0  0  0  0  0  0  0  0
   -1.2538   -2.2712   -0.8856 H   0  0  0  0  0  0  0  0  0  0  0  0
   -5.9963    3.2228    0.0441 S   0  0  0  0  0  0  0  0  0  0  0  0
   -5.2130    4.0938    1.1650 O   0  0  0  0  0  0  0  0  0  0  0  0
   -5.5454    1.8494    0.1104 O   0  0  0  0  0  0  0  0  0  0  0  0
   -7.3818    3.6282    0.1371 O   0  0  0  0  0  0  0  0  0  0  0  0
   -5.3741    3.8192   -1.3346 O   0  0  0  0  0  0  0  0  0  0  0  0
   -5.8632    4.6305   -1.5549 H   0  0  0  0  0  0  0  0  0  0  0  0
  1  2  1  0  0  0  0
  1  4  2  0  0  0  0
  2  3  1  0  0  0  0
  5  4  1  0  0  0  0
  5 10  1  0  0  0  0
  6  5  2  0  0  0  0
  7  8  2  0  0  0  0
  7  6  1  0  0  0  0
  8  1  1  0  0  0  0
 11  6  1  0  0  0  0
 12  7  1  0  0  0  0
 13  8  1  0  0  0  0
 14 16  2  0  0  0  0
 14 17  2  0  0  0  0
 14 15  1  0  0  0  0
 15  9  1  0  0  0  0
 18 14  1  0  0  0  0
 19 18  1  0  0  0  0
M  RAD  3   2   2   3   3   4   2
M  END
