Coordinates from ORCA-job PhN2+~HSO4-_B3LYPG-6-31G_dp-CH-Scan-d09-49-n800
 OpenBabel11261919183D

 19 18  0  0  0  0  0  0  0  0999 V2000
   -1.8896   -0.2048   -0.0585 C   0  0  0  0  0  0  0  0  0  0  0  0
   -3.2152   -0.6101    0.0457 N   0  0  0  0  0  0  0  0  0  0  0  0
   -4.2889   -0.9031    0.1439 N   0  0  0  0  0  0  0  0  0  0  0  0
   -1.6733    1.1487    0.2563 C   0  0  0  0  0  0  0  0  0  0  0  0
   -0.2934    1.4607    0.1275 C   0  0  0  0  0  0  0  0  0  0  0  0
    0.6762    0.5389   -0.2564 C   0  0  0  0  0  0  0  0  0  0  0  0
    0.3464   -0.8052   -0.5521 C   0  0  0  0  0  0  0  0  0  0  0  0
   -0.9665   -1.2102   -0.4566 C   0  0  0  0  0  0  0  0  0  0  0  0
   -3.5807    2.8941    0.8908 H   0  0  0  0  0  0  0  0  0  0  0  0
    0.0352    2.4775    0.3405 H   0  0  0  0  0  0  0  0  0  0  0  0
    1.7171    0.8473   -0.3354 H   0  0  0  0  0  0  0  0  0  0  0  0
    1.1170   -1.5084   -0.8502 H   0  0  0  0  0  0  0  0  0  0  0  0
   -1.2777   -2.2282   -0.6729 H   0  0  0  0  0  0  0  0  0  0  0  0
   -5.5706    3.0408    0.1103 S   0  0  0  0  0  0  0  0  0  0  0  0
   -4.3408    3.5022    1.0323 O   0  0  0  0  0  0  0  0  0  0  0  0
   -5.5778    1.5971   -0.0227 O   0  0  0  0  0  0  0  0  0  0  0  0
   -6.7165    3.8025    0.5627 O   0  0  0  0  0  0  0  0  0  0  0  0
   -5.1326    3.5987   -1.3574 O   0  0  0  0  0  0  0  0  0  0  0  0
   -5.3840    4.5369   -1.3990 H   0  0  0  0  0  0  0  0  0  0  0  0
  1  2  1  0  0  0  0
  1  4  2  0  0  0  0
  2  3  1  0  0  0  0
  5  4  1  0  0  0  0
  5 10  1  0  0  0  0
  6  5  2  0  0  0  0
  7  8  2  0  0  0  0
  7  6  1  0  0  0  0
  8  1  1  0  0  0  0
  9 15  1  0  0  0  0
 11  6  1  0  0  0  0
 12  7  1  0  0  0  0
 13  8  1  0  0  0  0
 14 17  2  0  0  0  0
 14 15  1  0  0  0  0
 16 14  2  0  0  0  0
 18 14  1  0  0  0  0
 19 18  1  0  0  0  0
M  RAD  3   2   2   3   3   4   2
M  END
