Coordinates from ORCA-job PhN2+~HSO4-_B3LYPG-6-31G_dp-CH-Scan-d09-49-n800
 OpenBabel11261919183D

 19 18  0  0  0  0  0  0  0  0999 V2000
   -2.0612   -0.0400   -0.3232 C   0  0  0  0  0  0  0  0  0  0  0  0
   -3.3816   -0.4152   -0.5206 N   0  0  0  0  0  0  0  0  0  0  0  0
   -4.4520   -0.6882   -0.6733 N   0  0  0  0  0  0  0  0  0  0  0  0
   -1.8353    1.3230   -0.0562 C   0  0  0  0  0  0  0  0  0  0  0  0
   -0.4622    1.5954    0.1263 C   0  0  0  0  0  0  0  0  0  0  0  0
    0.5276    0.6181    0.0468 C   0  0  0  0  0  0  0  0  0  0  0  0
    0.2105   -0.7288   -0.2286 C   0  0  0  0  0  0  0  0  0  0  0  0
   -1.1074   -1.0854   -0.4218 C   0  0  0  0  0  0  0  0  0  0  0  0
   -2.9528    2.4953    0.0860 H   0  0  0  0  0  0  0  0  0  0  0  0
   -0.1615    2.6181    0.3431 H   0  0  0  0  0  0  0  0  0  0  0  0
    1.5693    0.8902    0.1998 H   0  0  0  0  0  0  0  0  0  0  0  0
    0.9924   -1.4783   -0.2882 H   0  0  0  0  0  0  0  0  0  0  0  0
   -1.4046   -2.1072   -0.6370 H   0  0  0  0  0  0  0  0  0  0  0  0
   -5.1230    2.9669    0.3526 S   0  0  0  0  0  0  0  0  0  0  0  0
   -3.6257    3.3690    0.2146 O   0  0  0  0  0  0  0  0  0  0  0  0
   -5.2409    1.5384    0.6384 O   0  0  0  0  0  0  0  0  0  0  0  0
   -5.8293    3.9526    1.1567 O   0  0  0  0  0  0  0  0  0  0  0  0
   -5.6902    3.1160   -1.1858 O   0  0  0  0  0  0  0  0  0  0  0  0
   -5.9877    4.0352   -1.2808 H   0  0  0  0  0  0  0  0  0  0  0  0
  1  4  1  0  0  0  0
  2  1  1  0  0  0  0
  3  2  1  0  0  0  0
  4  5  2  0  0  0  0
  5 10  1  0  0  0  0
  6  5  1  0  0  0  0
  6 11  1  0  0  0  0
  7  6  2  0  0  0  0
  8  1  2  0  0  0  0
  8  7  1  0  0  0  0
  9 15  1  0  0  0  0
 12  7  1  0  0  0  0
 13  8  1  0  0  0  0
 14 16  2  0  0  0  0
 14 17  2  0  0  0  0
 15 14  1  0  0  0  0
 18 14  1  0  0  0  0
 19 18  1  0  0  0  0
M  RAD  3   2   2   3   3   4   2
M  END
