Coordinates from ORCA-job PhN2+~HSO4-_B3LYPG-6-31G_dp-CH-Scan-d09-49-n800
 OpenBabel11261919183D

 19 18  0  0  0  0  0  0  0  0999 V2000
   -1.5961   -0.2832    0.0073 C   0  0  0  0  0  0  0  0  0  0  0  0
   -2.9536   -0.5518    0.1859 N   0  0  0  0  0  0  0  0  0  0  0  0
   -4.0473   -0.7110    0.3598 N   0  0  0  0  0  0  0  0  0  0  0  0
   -1.2375    0.9974    0.4557 C   0  0  0  0  0  0  0  0  0  0  0  0
    0.1592    1.1884    0.2434 C   0  0  0  0  0  0  0  0  0  0  0  0
    0.9990    0.2344   -0.3223 C   0  0  0  0  0  0  0  0  0  0  0  0
    0.5148   -1.0317   -0.7372 C   0  0  0  0  0  0  0  0  0  0  0  0
   -0.8212   -1.3227   -0.5770 C   0  0  0  0  0  0  0  0  0  0  0  0
   -4.3213    3.6769    1.3123 H   0  0  0  0  0  0  0  0  0  0  0  0
    0.6084    2.1380    0.5386 H   0  0  0  0  0  0  0  0  0  0  0  0
    2.0575    0.4522   -0.4568 H   0  0  0  0  0  0  0  0  0  0  0  0
    1.1885   -1.7620   -1.1738 H   0  0  0  0  0  0  0  0  0  0  0  0
   -1.2505   -2.2755   -0.8753 H   0  0  0  0  0  0  0  0  0  0  0  0
   -5.9873    3.2196    0.0471 S   0  0  0  0  0  0  0  0  0  0  0  0
   -5.1938    4.0824    1.1671 O   0  0  0  0  0  0  0  0  0  0  0  0
   -5.5450    1.8432    0.1074 O   0  0  0  0  0  0  0  0  0  0  0  0
   -7.3698    3.6335    0.1474 O   0  0  0  0  0  0  0  0  0  0  0  0
   -5.3674    3.8160   -1.3326 O   0  0  0  0  0  0  0  0  0  0  0  0
   -5.8521    4.6311   -1.5483 H   0  0  0  0  0  0  0  0  0  0  0  0
  1  2  1  0  0  0  0
  1  4  2  0  0  0  0
  2  3  1  0  0  0  0
  5  4  1  0  0  0  0
  5 10  1  0  0  0  0
  6  5  2  0  0  0  0
  7  8  2  0  0  0  0
  7  6  1  0  0  0  0
  8  1  1  0  0  0  0
 11  6  1  0  0  0  0
 12  7  1  0  0  0  0
 13  8  1  0  0  0  0
 14 16  2  0  0  0  0
 14 17  2  0  0  0  0
 14 15  1  0  0  0  0
 15  9  1  0  0  0  0
 18 14  1  0  0  0  0
 19 18  1  0  0  0  0
M  RAD  3   2   2   3   3   4   2
M  END
