Coordinates from ORCA-job PhN2+~HSO4-_B3LYPG-6-31G_dp-CH-Scan-d09-49-n800
 OpenBabel11261919183D

 19 18  0  0  0  0  0  0  0  0999 V2000
   -2.0076   -0.1709   -0.0549 C   0  0  0  0  0  0  0  0  0  0  0  0
   -3.3144   -0.6292    0.0422 N   0  0  0  0  0  0  0  0  0  0  0  0
   -4.3741   -0.9692    0.1301 N   0  0  0  0  0  0  0  0  0  0  0  0
   -1.8337    1.1982    0.2216 C   0  0  0  0  0  0  0  0  0  0  0  0
   -0.4675    1.5574    0.1027 C   0  0  0  0  0  0  0  0  0  0  0  0
    0.5394    0.6593   -0.2413 C   0  0  0  0  0  0  0  0  0  0  0  0
    0.2594   -0.7013   -0.5022 C   0  0  0  0  0  0  0  0  0  0  0  0
   -1.0405   -1.1486   -0.4115 C   0  0  0  0  0  0  0  0  0  0  0  0
   -3.3312    2.5673    0.7076 H   0  0  0  0  0  0  0  0  0  0  0  0
   -0.1821    2.5910    0.2914 H   0  0  0  0  0  0  0  0  0  0  0  0
    1.5693    1.0024   -0.3146 H   0  0  0  0  0  0  0  0  0  0  0  0
    1.0567   -1.3864   -0.7704 H   0  0  0  0  0  0  0  0  0  0  0  0
   -1.3129   -2.1824   -0.6030 H   0  0  0  0  0  0  0  0  0  0  0  0
   -5.3704    2.9582    0.1163 S   0  0  0  0  0  0  0  0  0  0  0  0
   -4.0420    3.2490    0.9355 O   0  0  0  0  0  0  0  0  0  0  0  0
   -5.5314    1.5292   -0.0941 O   0  0  0  0  0  0  0  0  0  0  0  0
   -6.4148    3.7831    0.6928 O   0  0  0  0  0  0  0  0  0  0  0  0
   -5.0193    3.5569   -1.3643 O   0  0  0  0  0  0  0  0  0  0  0  0
   -5.1984    4.5115   -1.3353 H   0  0  0  0  0  0  0  0  0  0  0  0
  1  2  1  0  0  0  0
  1  4  2  0  0  0  0
  2  3  1  0  0  0  0
  5  4  1  0  0  0  0
  5 10  1  0  0  0  0
  6  5  2  0  0  0  0
  7  8  2  0  0  0  0
  7  6  1  0  0  0  0
  8  1  1  0  0  0  0
  9 15  1  0  0  0  0
 11  6  1  0  0  0  0
 12  7  1  0  0  0  0
 13  8  1  0  0  0  0
 14 17  2  0  0  0  0
 14 15  1  0  0  0  0
 16 14  2  0  0  0  0
 18 19  1  0  0  0  0
 18 14  1  0  0  0  0
M  RAD  3   2   2   3   3   4   2
M  END
