Coordinates from ORCA-job PhN2+~HSO4-_B3LYPG-6-31G_dp-CH-Scan-d09-49-n800
 OpenBabel11261919183D

 19 18  0  0  0  0  0  0  0  0999 V2000
   -1.6305   -0.2780   -0.0171 C   0  0  0  0  0  0  0  0  0  0  0  0
   -2.9867   -0.5635    0.1402 N   0  0  0  0  0  0  0  0  0  0  0  0
   -4.0809   -0.7382    0.2947 N   0  0  0  0  0  0  0  0  0  0  0  0
   -1.2974    1.0179    0.4075 C   0  0  0  0  0  0  0  0  0  0  0  0
    0.1006    1.2228    0.2191 C   0  0  0  0  0  0  0  0  0  0  0  0
    0.9645    0.2672   -0.3063 C   0  0  0  0  0  0  0  0  0  0  0  0
    0.5057   -1.0147   -0.7008 C   0  0  0  0  0  0  0  0  0  0  0  0
   -0.8295   -1.3198   -0.5608 C   0  0  0  0  0  0  0  0  0  0  0  0
   -4.2151    3.6074    1.2633 H   0  0  0  0  0  0  0  0  0  0  0  0
    0.5311    2.1850    0.5006 H   0  0  0  0  0  0  0  0  0  0  0  0
    2.0227    0.4962   -0.4241 H   0  0  0  0  0  0  0  0  0  0  0  0
    1.1976   -1.7458   -1.1063 H   0  0  0  0  0  0  0  0  0  0  0  0
   -1.2400   -2.2850   -0.8452 H   0  0  0  0  0  0  0  0  0  0  0  0
   -5.9438    3.2045    0.0654 S   0  0  0  0  0  0  0  0  0  0  0  0
   -5.0832    4.0345    1.1589 O   0  0  0  0  0  0  0  0  0  0  0  0
   -5.5460    1.8136    0.1014 O   0  0  0  0  0  0  0  0  0  0  0  0
   -7.3077    3.6619    0.2186 O   0  0  0  0  0  0  0  0  0  0  0  0
   -5.3563    3.7884   -1.3340 O   0  0  0  0  0  0  0  0  0  0  0  0
   -5.8206    4.6210   -1.5264 H   0  0  0  0  0  0  0  0  0  0  0  0
  1  2  1  0  0  0  0
  1  4  2  0  0  0  0
  2  3  1  0  0  0  0
  5  4  1  0  0  0  0
  5 10  1  0  0  0  0
  6  5  2  0  0  0  0
  7  8  2  0  0  0  0
  7  6  1  0  0  0  0
  8  1  1  0  0  0  0
 11  6  1  0  0  0  0
 12  7  1  0  0  0  0
 13  8  1  0  0  0  0
 14 16  2  0  0  0  0
 14 17  2  0  0  0  0
 14 15  1  0  0  0  0
 15  9  1  0  0  0  0
 18 14  1  0  0  0  0
 19 18  1  0  0  0  0
M  RAD  3   2   2   3   3   4   2
M  END
