Coordinates from ORCA-job PhN2+~HSO4-_B3LYPG-6-31G_dp-CH-Scan-d09-49-n800
 OpenBabel11261919183D

 19 18  0  0  0  0  0  0  0  0999 V2000
   -2.0086   -0.1708   -0.0537 C   0  0  0  0  0  0  0  0  0  0  0  0
   -3.3151   -0.6296    0.0443 N   0  0  0  0  0  0  0  0  0  0  0  0
   -4.3745   -0.9700    0.1331 N   0  0  0  0  0  0  0  0  0  0  0  0
   -1.8349    1.1985    0.2218 C   0  0  0  0  0  0  0  0  0  0  0  0
   -0.4690    1.5582    0.1020 C   0  0  0  0  0  0  0  0  0  0  0  0
    0.5381    0.6603   -0.2421 C   0  0  0  0  0  0  0  0  0  0  0  0
    0.2585   -0.7006   -0.5019 C   0  0  0  0  0  0  0  0  0  0  0  0
   -1.0413   -1.1483   -0.4103 C   0  0  0  0  0  0  0  0  0  0  0  0
   -3.3295    2.5638    0.7064 H   0  0  0  0  0  0  0  0  0  0  0  0
   -0.1839    2.5920    0.2899 H   0  0  0  0  0  0  0  0  0  0  0  0
    1.5678    1.0038   -0.3160 H   0  0  0  0  0  0  0  0  0  0  0  0
    1.0559   -1.3856   -0.7702 H   0  0  0  0  0  0  0  0  0  0  0  0
   -1.3133   -2.1823   -0.6010 H   0  0  0  0  0  0  0  0  0  0  0  0
   -5.3684    2.9570    0.1146 S   0  0  0  0  0  0  0  0  0  0  0  0
   -4.0406    3.2454    0.9352 O   0  0  0  0  0  0  0  0  0  0  0  0
   -5.5290    1.5286   -0.1005 O   0  0  0  0  0  0  0  0  0  0  0  0
   -6.4135    3.7795    0.6932 O   0  0  0  0  0  0  0  0  0  0  0  0
   -5.0172    3.5605   -1.3640 O   0  0  0  0  0  0  0  0  0  0  0  0
   -5.1973    4.5149   -1.3321 H   0  0  0  0  0  0  0  0  0  0  0  0
  1  2  1  0  0  0  0
  1  4  2  0  0  0  0
  2  3  1  0  0  0  0
  5  4  1  0  0  0  0
  5 10  1  0  0  0  0
  6  5  2  0  0  0  0
  7  8  2  0  0  0  0
  7  6  1  0  0  0  0
  8  1  1  0  0  0  0
  9 15  1  0  0  0  0
 11  6  1  0  0  0  0
 12  7  1  0  0  0  0
 13  8  1  0  0  0  0
 14 17  2  0  0  0  0
 14 15  1  0  0  0  0
 16 14  2  0  0  0  0
 18 19  1  0  0  0  0
 18 14  1  0  0  0  0
M  RAD  3   2   2   3   3   4   2
M  END
