Coordinates from ORCA-job PhN2+~HSO4-_B3LYPG-6-31G_dp-CH-Scan-d09-49-n800
 OpenBabel11261919183D

 19 18  0  0  0  0  0  0  0  0999 V2000
   -1.5611   -0.2856    0.0373 C   0  0  0  0  0  0  0  0  0  0  0  0
   -2.9191   -0.5364    0.2403 N   0  0  0  0  0  0  0  0  0  0  0  0
   -4.0108   -0.6800    0.4393 N   0  0  0  0  0  0  0  0  0  0  0  0
   -1.1710    0.9721    0.5215 C   0  0  0  0  0  0  0  0  0  0  0  0
    0.2238    1.1475    0.2836 C   0  0  0  0  0  0  0  0  0  0  0  0
    1.0335    0.2006   -0.3355 C   0  0  0  0  0  0  0  0  0  0  0  0
    0.5180   -1.0420   -0.7830 C   0  0  0  0  0  0  0  0  0  0  0  0
   -0.8188   -1.3166   -0.6013 C   0  0  0  0  0  0  0  0  0  0  0  0
   -4.4206    3.7516    1.3429 H   0  0  0  0  0  0  0  0  0  0  0  0
    0.6961    2.0784    0.6013 H   0  0  0  0  0  0  0  0  0  0  0  0
    2.0922    0.4055   -0.4876 H   0  0  0  0  0  0  0  0  0  0  0  0
    1.1688   -1.7673   -1.2607 H   0  0  0  0  0  0  0  0  0  0  0  0
   -1.2712   -2.2514   -0.9218 H   0  0  0  0  0  0  0  0  0  0  0  0
   -6.0290    3.2317    0.0284 S   0  0  0  0  0  0  0  0  0  0  0  0
   -5.2971    4.1328    1.1609 O   0  0  0  0  0  0  0  0  0  0  0  0
   -5.5439    1.8714    0.1193 O   0  0  0  0  0  0  0  0  0  0  0  0
   -7.4265    3.6016    0.0827 O   0  0  0  0  0  0  0  0  0  0  0  0
   -5.3874    3.8327   -1.3391 O   0  0  0  0  0  0  0  0  0  0  0  0
   -5.8915    4.6288   -1.5797 H   0  0  0  0  0  0  0  0  0  0  0  0
  1  2  1  0  0  0  0
  1  4  2  0  0  0  0
  2  3  1  0  0  0  0
  5  4  1  0  0  0  0
  5 10  1  0  0  0  0
  6  5  2  0  0  0  0
  7  8  2  0  0  0  0
  7  6  1  0  0  0  0
  8  1  1  0  0  0  0
 11  6  1  0  0  0  0
 12  7  1  0  0  0  0
 13  8  1  0  0  0  0
 14 17  2  0  0  0  0
 14 16  2  0  0  0  0
 14 15  1  0  0  0  0
 15  9  1  0  0  0  0
 18 14  1  0  0  0  0
 19 18  1  0  0  0  0
M  RAD  3   2   2   3   3   4   2
M  END
