Coordinates from ORCA-job PhN2+~HSO4-_B3LYPG-6-31G_dp-CH-Scan-d09-49-n800
 OpenBabel11261919183D

 19 18  0  0  0  0  0  0  0  0999 V2000
   -1.7188   -0.2560   -0.0551 C   0  0  0  0  0  0  0  0  0  0  0  0
   -3.0680   -0.5831    0.0638 N   0  0  0  0  0  0  0  0  0  0  0  0
   -4.1583   -0.7985    0.1892 N   0  0  0  0  0  0  0  0  0  0  0  0
   -1.4367    1.0679    0.3207 C   0  0  0  0  0  0  0  0  0  0  0  0
   -0.0408    1.3092    0.1736 C   0  0  0  0  0  0  0  0  0  0  0  0
    0.8706    0.3584   -0.2751 C   0  0  0  0  0  0  0  0  0  0  0  0
    0.4652   -0.9530   -0.6265 C   0  0  0  0  0  0  0  0  0  0  0  0
   -0.8647   -1.2933   -0.5210 C   0  0  0  0  0  0  0  0  0  0  0  0
   -3.9607    3.3604    1.1248 H   0  0  0  0  0  0  0  0  0  0  0  0
    0.3491    2.2961    0.4258 H   0  0  0  0  0  0  0  0  0  0  0  0
    1.9250    0.6152   -0.3641 H   0  0  0  0  0  0  0  0  0  0  0  0
    1.1927   -1.6795   -0.9735 H   0  0  0  0  0  0  0  0  0  0  0  0
   -1.2350   -2.2824   -0.7767 H   0  0  0  0  0  0  0  0  0  0  0  0
   -5.8277    3.1582    0.0961 S   0  0  0  0  0  0  0  0  0  0  0  0
   -4.7928    3.8665    1.1170 O   0  0  0  0  0  0  0  0  0  0  0  0
   -5.5786    1.7324    0.0678 O   0  0  0  0  0  0  0  0  0  0  0  0
   -7.1186    3.7463    0.3820 O   0  0  0  0  0  0  0  0  0  0  0  0
   -5.3141    3.7148   -1.3439 O   0  0  0  0  0  0  0  0  0  0  0  0
   -5.7034    4.5959   -1.4762 H   0  0  0  0  0  0  0  0  0  0  0  0
  1  2  1  0  0  0  0
  1  4  2  0  0  0  0
  2  3  1  0  0  0  0
  5  4  1  0  0  0  0
  5 10  1  0  0  0  0
  6  5  2  0  0  0  0
  7  8  2  0  0  0  0
  7  6  1  0  0  0  0
  8  1  1  0  0  0  0
 11  6  1  0  0  0  0
 12  7  1  0  0  0  0
 13  8  1  0  0  0  0
 14 17  2  0  0  0  0
 14 15  1  0  0  0  0
 15  9  1  0  0  0  0
 16 14  2  0  0  0  0
 18 14  1  0  0  0  0
 19 18  1  0  0  0  0
M  RAD  3   2   2   3   3   4   2
M  END
