Coordinates from ORCA-job PhN2+~HSO4-_B3LYPG-6-31G_dp-CH-Scan-d09-49-n800
 OpenBabel11261919183D

 19 18  0  0  0  0  0  0  0  0999 V2000
   -1.9750   -0.1797   -0.0586 C   0  0  0  0  0  0  0  0  0  0  0  0
   -3.2875   -0.6229    0.0382 N   0  0  0  0  0  0  0  0  0  0  0  0
   -4.3513   -0.9507    0.1258 N   0  0  0  0  0  0  0  0  0  0  0  0
   -1.7898    1.1848    0.2309 C   0  0  0  0  0  0  0  0  0  0  0  0
   -0.4194    1.5313    0.1111 C   0  0  0  0  0  0  0  0  0  0  0  0
    0.5775    0.6268   -0.2445 C   0  0  0  0  0  0  0  0  0  0  0  0
    0.2840   -0.7292   -0.5175 C   0  0  0  0  0  0  0  0  0  0  0  0
   -1.0197   -1.1650   -0.4274 C   0  0  0  0  0  0  0  0  0  0  0  0
   -3.4033    2.6623    0.7638 H   0  0  0  0  0  0  0  0  0  0  0  0
   -0.1218    2.5600    0.3083 H   0  0  0  0  0  0  0  0  0  0  0  0
    1.6107    0.9605   -0.3179 H   0  0  0  0  0  0  0  0  0  0  0  0
    1.0743   -1.4189   -0.7945 H   0  0  0  0  0  0  0  0  0  0  0  0
   -1.3026   -2.1943   -0.6278 H   0  0  0  0  0  0  0  0  0  0  0  0
   -5.4294    2.9825    0.1196 S   0  0  0  0  0  0  0  0  0  0  0  0
   -4.1241    3.3230    0.9682 O   0  0  0  0  0  0  0  0  0  0  0  0
   -5.5555    1.5465   -0.0554 O   0  0  0  0  0  0  0  0  0  0  0  0
   -6.4976    3.8042    0.6536 O   0  0  0  0  0  0  0  0  0  0  0  0
   -5.0479    3.5505   -1.3636 O   0  0  0  0  0  0  0  0  0  0  0  0
   -5.2371    4.5038   -1.3635 H   0  0  0  0  0  0  0  0  0  0  0  0
  1  2  1  0  0  0  0
  1  4  2  0  0  0  0
  2  3  1  0  0  0  0
  5  4  1  0  0  0  0
  5 10  1  0  0  0  0
  6  5  2  0  0  0  0
  7  8  2  0  0  0  0
  7  6  1  0  0  0  0
  8  1  1  0  0  0  0
  9 15  1  0  0  0  0
 11  6  1  0  0  0  0
 12  7  1  0  0  0  0
 13  8  1  0  0  0  0
 14 17  2  0  0  0  0
 14 15  1  0  0  0  0
 16 14  2  0  0  0  0
 18 19  1  0  0  0  0
 18 14  1  0  0  0  0
M  RAD  3   2   2   3   3   4   2
M  END
