Coordinates from ORCA-job PhN2+~HSO4-_B3LYPG-6-31G_dp-CH-Scan-d09-49-n800
 OpenBabel11261919183D

 19 18  0  0  0  0  0  0  0  0999 V2000
   -1.8487   -0.2175   -0.0536 C   0  0  0  0  0  0  0  0  0  0  0  0
   -3.1797   -0.6053    0.0580 N   0  0  0  0  0  0  0  0  0  0  0  0
   -4.2576   -0.8812    0.1633 N   0  0  0  0  0  0  0  0  0  0  0  0
   -1.6165    1.1285    0.2802 C   0  0  0  0  0  0  0  0  0  0  0  0
   -0.2328    1.4244    0.1418 C   0  0  0  0  0  0  0  0  0  0  0  0
    0.7217    0.4971   -0.2654 C   0  0  0  0  0  0  0  0  0  0  0  0
    0.3732   -0.8390   -0.5780 C   0  0  0  0  0  0  0  0  0  0  0  0
   -0.9433   -1.2295   -0.4757 C   0  0  0  0  0  0  0  0  0  0  0  0
   -3.6769    3.0151    0.9700 H   0  0  0  0  0  0  0  0  0  0  0  0
    0.1114    2.4338    0.3666 H   0  0  0  0  0  0  0  0  0  0  0  0
    1.7656    0.7941   -0.3504 H   0  0  0  0  0  0  0  0  0  0  0  0
    1.1327   -1.5466   -0.8938 H   0  0  0  0  0  0  0  0  0  0  0  0
   -1.2694   -2.2405   -0.7038 H   0  0  0  0  0  0  0  0  0  0  0  0
   -5.6344    3.0683    0.1039 S   0  0  0  0  0  0  0  0  0  0  0  0
   -4.4582    3.5980    1.0656 O   0  0  0  0  0  0  0  0  0  0  0  0
   -5.5775    1.6238    0.0045 O   0  0  0  0  0  0  0  0  0  0  0  0
   -6.8233    3.7950    0.4976 O   0  0  0  0  0  0  0  0  0  0  0  0
   -5.1581    3.6152   -1.3548 O   0  0  0  0  0  0  0  0  0  0  0  0
   -5.4436    4.5417   -1.4271 H   0  0  0  0  0  0  0  0  0  0  0  0
  1  2  1  0  0  0  0
  1  4  2  0  0  0  0
  2  3  1  0  0  0  0
  5  4  1  0  0  0  0
  5 10  1  0  0  0  0
  6  5  2  0  0  0  0
  7  8  2  0  0  0  0
  7  6  1  0  0  0  0
  8  1  1  0  0  0  0
  9 15  1  0  0  0  0
 11  6  1  0  0  0  0
 12  7  1  0  0  0  0
 13  8  1  0  0  0  0
 14 17  2  0  0  0  0
 14 15  1  0  0  0  0
 16 14  2  0  0  0  0
 18 14  1  0  0  0  0
 19 18  1  0  0  0  0
M  RAD  3   2   2   3   3   4   2
M  END
