Coordinates from ORCA-job PhN2+~HSO4-_B3LYPG-6-31G_dp-CH-Scan-d09-49-n800
 OpenBabel11261919183D

 19 18  0  0  0  0  0  0  0  0999 V2000
   -1.9892   -0.1753   -0.0600 C   0  0  0  0  0  0  0  0  0  0  0  0
   -3.2997   -0.6246    0.0339 N   0  0  0  0  0  0  0  0  0  0  0  0
   -4.3620   -0.9576    0.1190 N   0  0  0  0  0  0  0  0  0  0  0  0
   -1.8089    1.1908    0.2257 C   0  0  0  0  0  0  0  0  0  0  0  0
   -0.4401    1.5425    0.1090 C   0  0  0  0  0  0  0  0  0  0  0  0
    0.5615    0.6408   -0.2409 C   0  0  0  0  0  0  0  0  0  0  0  0
    0.2739   -0.7168   -0.5106 C   0  0  0  0  0  0  0  0  0  0  0  0
   -1.0285   -1.1573   -0.4230 C   0  0  0  0  0  0  0  0  0  0  0  0
   -3.3717    2.6238    0.7393 H   0  0  0  0  0  0  0  0  0  0  0  0
   -0.1477    2.5731    0.3042 H   0  0  0  0  0  0  0  0  0  0  0  0
    1.5935    0.9783   -0.3120 H   0  0  0  0  0  0  0  0  0  0  0  0
    1.0674   -1.4045   -0.7832 H   0  0  0  0  0  0  0  0  0  0  0  0
   -1.3069   -2.1882   -0.6212 H   0  0  0  0  0  0  0  0  0  0  0  0
   -5.4047    2.9735    0.1230 S   0  0  0  0  0  0  0  0  0  0  0  0
   -4.0860    3.2952    0.9532 O   0  0  0  0  0  0  0  0  0  0  0  0
   -5.5505    1.5393   -0.0557 O   0  0  0  0  0  0  0  0  0  0  0  0
   -6.4586    3.8043    0.6719 O   0  0  0  0  0  0  0  0  0  0  0  0
   -5.0384    3.5416   -1.3648 O   0  0  0  0  0  0  0  0  0  0  0  0
   -5.2190    4.4965   -1.3591 H   0  0  0  0  0  0  0  0  0  0  0  0
  1  2  1  0  0  0  0
  1  4  2  0  0  0  0
  2  3  1  0  0  0  0
  5  4  1  0  0  0  0
  5 10  1  0  0  0  0
  6  5  2  0  0  0  0
  7  8  2  0  0  0  0
  7  6  1  0  0  0  0
  8  1  1  0  0  0  0
  9 15  1  0  0  0  0
 11  6  1  0  0  0  0
 12  7  1  0  0  0  0
 13  8  1  0  0  0  0
 14 17  2  0  0  0  0
 14 15  1  0  0  0  0
 16 14  2  0  0  0  0
 18 19  1  0  0  0  0
 18 14  1  0  0  0  0
M  RAD  3   2   2   3   3   4   2
M  END
