Coordinates from ORCA-job PhN2+~HSO4-_B3LYPG-6-31G_dp-CH-Scan-d09-49-n800
 OpenBabel11261919183D

 19 18  0  0  0  0  0  0  0  0999 V2000
   -1.7378   -0.2709    0.8413 C   0  0  0  0  0  0  0  0  0  0  0  0
   -2.8547   -0.9174    1.3788 N   0  0  0  0  0  0  0  0  0  0  0  0
   -3.6999   -1.4519    1.8788 N   0  0  0  0  0  0  0  0  0  0  0  0
   -0.6196   -0.3678    1.6809 C   0  0  0  0  0  0  0  0  0  0  0  0
    0.4655    0.3489    1.0873 C   0  0  0  0  0  0  0  0  0  0  0  0
    0.3813    1.0306   -0.1210 C   0  0  0  0  0  0  0  0  0  0  0  0
   -0.8104    1.0328   -0.8942 C   0  0  0  0  0  0  0  0  0  0  0  0
   -1.9181    0.3603   -0.4210 C   0  0  0  0  0  0  0  0  0  0  0  0
   -3.0492    2.8833   -0.5046 H   0  0  0  0  0  0  0  0  0  0  0  0
    1.4231    0.3721    1.6094 H   0  0  0  0  0  0  0  0  0  0  0  0
    1.2473    1.5674   -0.5051 H   0  0  0  0  0  0  0  0  0  0  0  0
   -0.8351    1.5269   -1.8609 H   0  0  0  0  0  0  0  0  0  0  0  0
   -2.8480    0.2885   -0.9777 H   0  0  0  0  0  0  0  0  0  0  0  0
   -5.1719    2.5710   -0.5026 S   0  0  0  0  0  0  0  0  0  0  0  0
   -3.8266    3.4654   -0.5983 O   0  0  0  0  0  0  0  0  0  0  0  0
   -4.9215    1.4194    0.3406 O   0  0  0  0  0  0  0  0  0  0  0  0
   -6.2539    3.5068   -0.2976 O   0  0  0  0  0  0  0  0  0  0  0  0
   -5.2750    1.9720   -2.0131 O   0  0  0  0  0  0  0  0  0  0  0  0
   -5.7110    2.6378   -2.5725 H   0  0  0  0  0  0  0  0  0  0  0  0
  1  2  1  0  0  0  0
  1  4  2  0  0  0  0
  2  3  1  0  0  0  0
  5 10  1  0  0  0  0
  5  4  1  0  0  0  0
  6  5  2  0  0  0  0
  7  8  2  0  0  0  0
  7  6  1  0  0  0  0
  8  1  1  0  0  0  0
 11  6  1  0  0  0  0
 12  7  1  0  0  0  0
 13  8  1  0  0  0  0
 14 17  2  0  0  0  0
 14 16  2  0  0  0  0
 15  9  1  0  0  0  0
 15 14  1  0  0  0  0
 18 14  1  0  0  0  0
 19 18  1  0  0  0  0
M  RAD  3   2   2   3   3   4   2
M  END
