Coordinates from ORCA-job PhN2+~HSO4-_B3LYPG-6-31G_dp-CH-Scan-d09-49-n800
 OpenBabel11261919183D

 19 18  0  0  0  0  0  0  0  0999 V2000
   -1.9922   -0.1744   -0.0604 C   0  0  0  0  0  0  0  0  0  0  0  0
   -3.3023   -0.6250    0.0328 N   0  0  0  0  0  0  0  0  0  0  0  0
   -4.3643   -0.9590    0.1174 N   0  0  0  0  0  0  0  0  0  0  0  0
   -1.8130    1.1921    0.2246 C   0  0  0  0  0  0  0  0  0  0  0  0
   -0.4445    1.5449    0.1087 C   0  0  0  0  0  0  0  0  0  0  0  0
    0.5581    0.6438   -0.2400 C   0  0  0  0  0  0  0  0  0  0  0  0
    0.2717   -0.7142   -0.5091 C   0  0  0  0  0  0  0  0  0  0  0  0
   -1.0304   -1.1556   -0.4221 C   0  0  0  0  0  0  0  0  0  0  0  0
   -3.3648    2.6157    0.7339 H   0  0  0  0  0  0  0  0  0  0  0  0
   -0.1532    2.5758    0.3035 H   0  0  0  0  0  0  0  0  0  0  0  0
    1.5899    0.9821   -0.3106 H   0  0  0  0  0  0  0  0  0  0  0  0
    1.0660   -1.4015   -0.7807 H   0  0  0  0  0  0  0  0  0  0  0  0
   -1.3078   -2.1869   -0.6199 H   0  0  0  0  0  0  0  0  0  0  0  0
   -5.3994    2.9716    0.1239 S   0  0  0  0  0  0  0  0  0  0  0  0
   -4.0778    3.2894    0.9499 O   0  0  0  0  0  0  0  0  0  0  0  0
   -5.5495    1.5378   -0.0554 O   0  0  0  0  0  0  0  0  0  0  0  0
   -6.4501    3.8044    0.6759 O   0  0  0  0  0  0  0  0  0  0  0  0
   -5.0366    3.5396   -1.3651 O   0  0  0  0  0  0  0  0  0  0  0  0
   -5.2153    4.4948   -1.3583 H   0  0  0  0  0  0  0  0  0  0  0  0
  1  2  1  0  0  0  0
  1  4  2  0  0  0  0
  2  3  1  0  0  0  0
  5  4  1  0  0  0  0
  5 10  1  0  0  0  0
  6  5  2  0  0  0  0
  7  8  2  0  0  0  0
  7  6  1  0  0  0  0
  8  1  1  0  0  0  0
  9 15  1  0  0  0  0
 11  6  1  0  0  0  0
 12  7  1  0  0  0  0
 13  8  1  0  0  0  0
 14 17  2  0  0  0  0
 14 15  1  0  0  0  0
 16 14  2  0  0  0  0
 18 19  1  0  0  0  0
 18 14  1  0  0  0  0
M  RAD  3   2   2   3   3   4   2
M  END
