Coordinates from ORCA-job PhN2+~HSO4-_B3LYPG-6-31G_dp-CH-Scan-d09-49-n800
 OpenBabel11261919183D

 19 18  0  0  0  0  0  0  0  0999 V2000
   -1.6055   -0.2818   -0.0009 C   0  0  0  0  0  0  0  0  0  0  0  0
   -2.9628   -0.5553    0.1711 N   0  0  0  0  0  0  0  0  0  0  0  0
   -4.0566   -0.7192    0.3398 N   0  0  0  0  0  0  0  0  0  0  0  0
   -1.2543    1.0033    0.4407 C   0  0  0  0  0  0  0  0  0  0  0  0
    0.1431    1.1978    0.2365 C   0  0  0  0  0  0  0  0  0  0  0  0
    0.9901    0.2430   -0.3169 C   0  0  0  0  0  0  0  0  0  0  0  0
    0.5132   -1.0278   -0.7263 C   0  0  0  0  0  0  0  0  0  0  0  0
   -0.8229   -1.3223   -0.5728 C   0  0  0  0  0  0  0  0  0  0  0  0
   -4.2904    3.6596    1.2974 H   0  0  0  0  0  0  0  0  0  0  0  0
    0.5869    2.1510    0.5281 H   0  0  0  0  0  0  0  0  0  0  0  0
    2.0487    0.4636   -0.4458 H   0  0  0  0  0  0  0  0  0  0  0  0
    1.1923   -1.7587   -1.1533 H   0  0  0  0  0  0  0  0  0  0  0  0
   -1.2468   -2.2788   -0.8672 H   0  0  0  0  0  0  0  0  0  0  0  0
   -5.9759    3.2160    0.0531 S   0  0  0  0  0  0  0  0  0  0  0  0
   -5.1624    4.0705    1.1646 O   0  0  0  0  0  0  0  0  0  0  0  0
   -5.5456    1.8354    0.1061 O   0  0  0  0  0  0  0  0  0  0  0  0
   -7.3535    3.6418    0.1698 O   0  0  0  0  0  0  0  0  0  0  0  0
   -5.3668    3.8086   -1.3332 O   0  0  0  0  0  0  0  0  0  0  0  0
   -5.8465    4.6285   -1.5420 H   0  0  0  0  0  0  0  0  0  0  0  0
  1  2  1  0  0  0  0
  1  4  2  0  0  0  0
  2  3  1  0  0  0  0
  5  4  1  0  0  0  0
  5 10  1  0  0  0  0
  6  5  2  0  0  0  0
  7  8  2  0  0  0  0
  7  6  1  0  0  0  0
  8  1  1  0  0  0  0
 11  6  1  0  0  0  0
 12  7  1  0  0  0  0
 13  8  1  0  0  0  0
 14 16  2  0  0  0  0
 14 17  2  0  0  0  0
 14 15  1  0  0  0  0
 15  9  1  0  0  0  0
 18 14  1  0  0  0  0
 19 18  1  0  0  0  0
M  RAD  3   2   2   3   3   4   2
M  END
