Coordinates from ORCA-job PhN2+~HSO4-_B3LYPG-6-31G_dp-CH-Scan-d09-49-n800
 OpenBabel11261919183D

 19 18  0  0  0  0  0  0  0  0999 V2000
   -2.0040   -0.1714   -0.0582 C   0  0  0  0  0  0  0  0  0  0  0  0
   -3.3118   -0.6278    0.0358 N   0  0  0  0  0  0  0  0  0  0  0  0
   -4.3722   -0.9661    0.1213 N   0  0  0  0  0  0  0  0  0  0  0  0
   -1.8289    1.1968    0.2216 C   0  0  0  0  0  0  0  0  0  0  0  0
   -0.4619    1.5542    0.1054 C   0  0  0  0  0  0  0  0  0  0  0  0
    0.5442    0.6555   -0.2394 C   0  0  0  0  0  0  0  0  0  0  0  0
    0.2628   -0.7042   -0.5037 C   0  0  0  0  0  0  0  0  0  0  0  0
   -1.0379   -1.1499   -0.4158 C   0  0  0  0  0  0  0  0  0  0  0  0
   -3.3388    2.5809    0.7135 H   0  0  0  0  0  0  0  0  0  0  0  0
   -0.1750    2.5869    0.2967 H   0  0  0  0  0  0  0  0  0  0  0  0
    1.5747    0.9973   -0.3105 H   0  0  0  0  0  0  0  0  0  0  0  0
    1.0594   -1.3898   -0.7724 H   0  0  0  0  0  0  0  0  0  0  0  0
   -1.3115   -2.1828   -0.6099 H   0  0  0  0  0  0  0  0  0  0  0  0
   -5.3779    2.9625    0.1214 S   0  0  0  0  0  0  0  0  0  0  0  0
   -4.0489    3.2617    0.9381 O   0  0  0  0  0  0  0  0  0  0  0  0
   -5.5394    1.5315   -0.0735 O   0  0  0  0  0  0  0  0  0  0  0  0
   -6.4210    3.7944    0.6897 O   0  0  0  0  0  0  0  0  0  0  0  0
   -5.0257    3.5451   -1.3652 O   0  0  0  0  0  0  0  0  0  0  0  0
   -5.2018    4.5005   -1.3461 H   0  0  0  0  0  0  0  0  0  0  0  0
  1  2  1  0  0  0  0
  1  4  2  0  0  0  0
  2  3  1  0  0  0  0
  5  4  1  0  0  0  0
  5 10  1  0  0  0  0
  6  5  2  0  0  0  0
  7  8  2  0  0  0  0
  7  6  1  0  0  0  0
  8  1  1  0  0  0  0
  9 15  1  0  0  0  0
 11  6  1  0  0  0  0
 12  7  1  0  0  0  0
 13  8  1  0  0  0  0
 14 17  2  0  0  0  0
 14 15  1  0  0  0  0
 16 14  2  0  0  0  0
 18 19  1  0  0  0  0
 18 14  1  0  0  0  0
M  RAD  3   2   2   3   3   4   2
M  END
