Coordinates from ORCA-job PhN2+~HSO4-_B3LYPG-6-31G_dp-CH-Scan-d09-49-n800
 OpenBabel11261919183D

 19 18  0  0  0  0  0  0  0  0999 V2000
   -2.0179    0.3402   -0.0031 C   0  0  0  0  0  0  0  0  0  0  0  0
   -3.4079    0.1807    0.0590 N   0  0  0  0  0  0  0  0  0  0  0  0
   -4.4073   -0.3314    0.0936 N   0  0  0  0  0  0  0  0  0  0  0  0
   -1.4278    1.5463    0.3903 C   0  0  0  0  0  0  0  0  0  0  0  0
   -0.0370    1.6157    0.3360 C   0  0  0  0  0  0  0  0  0  0  0  0
    0.7202    0.5287   -0.1072 C   0  0  0  0  0  0  0  0  0  0  0  0
    0.0983   -0.6623   -0.5000 C   0  0  0  0  0  0  0  0  0  0  0  0
   -1.2851   -0.7737   -0.4465 C   0  0  0  0  0  0  0  0  0  0  0  0
   -1.9447    2.2404    0.6550 H   0  0  0  0  0  0  0  0  0  0  0  0
    0.4540    2.5355    0.6365 H   0  0  0  0  0  0  0  0  0  0  0  0
    1.8023    0.6072   -0.1501 H   0  0  0  0  0  0  0  0  0  0  0  0
    0.6900   -1.5038   -0.8446 H   0  0  0  0  0  0  0  0  0  0  0  0
   -1.7949   -1.6842   -0.7405 H   0  0  0  0  0  0  0  0  0  0  0  0
   -5.4004    2.6801    0.0271 S   0  0  0  0  0  0  0  0  0  0  0  0
   -3.9137    2.5421   -0.0576 O   0  0  0  0  0  0  0  0  0  0  0  0
   -6.0320    1.3542    0.2654 O   0  0  0  0  0  0  0  0  0  0  0  0
   -5.8834    3.7814    0.8644 O   0  0  0  0  0  0  0  0  0  0  0  0
   -5.8299    3.1001   -1.5176 O   0  0  0  0  0  0  0  0  0  0  0  0
   -6.3984    3.8783   -1.4114 H   0  0  0  0  0  0  0  0  0  0  0  0
  1  2  1  0  0  0  0
  1  4  2  0  0  0  0
  2  3  1  0  0  0  0
  4  9  1  0  0  0  0
  5  4  1  0  0  0  0
  5 10  1  0  0  0  0
  6  5  2  0  0  0  0
  7  8  2  0  0  0  0
  7  6  1  0  0  0  0
  8  1  1  0  0  0  0
 11  6  1  0  0  0  0
 12  7  1  0  0  0  0
 13  8  1  0  0  0  0
 14 16  2  0  0  0  0
 14 17  1  0  0  0  0
 15 14  2  0  0  0  0
 18 19  1  0  0  0  0
 18 14  1  0  0  0  0
M  RAD  3   2   2   3   3  17   2
M  END
