Coordinates from ORCA-job PhN2+~HSO4-_B3LYPG-6-31G_dp-CH-Scan-d09-49-n800
 OpenBabel11261919183D

 19 18  0  0  0  0  0  0  0  0999 V2000
   -1.9585   -0.1848   -0.0578 C   0  0  0  0  0  0  0  0  0  0  0  0
   -3.2735   -0.6209    0.0415 N   0  0  0  0  0  0  0  0  0  0  0  0
   -4.3392   -0.9424    0.1317 N   0  0  0  0  0  0  0  0  0  0  0  0
   -1.7677    1.1778    0.2362 C   0  0  0  0  0  0  0  0  0  0  0  0
   -0.3956    1.5181    0.1135 C   0  0  0  0  0  0  0  0  0  0  0  0
    0.5962    0.6104   -0.2480 C   0  0  0  0  0  0  0  0  0  0  0  0
    0.2959   -0.7436   -0.5248 C   0  0  0  0  0  0  0  0  0  0  0  0
   -1.0094   -1.1740   -0.4326 C   0  0  0  0  0  0  0  0  0  0  0  0
   -3.4386    2.7070    0.7904 H   0  0  0  0  0  0  0  0  0  0  0  0
   -0.0921    2.5448    0.3134 H   0  0  0  0  0  0  0  0  0  0  0  0
    1.6307    0.9395   -0.3233 H   0  0  0  0  0  0  0  0  0  0  0  0
    1.0825   -1.4358   -0.8063 H   0  0  0  0  0  0  0  0  0  0  0  0
   -1.2975   -2.2014   -0.6357 H   0  0  0  0  0  0  0  0  0  0  0  0
   -5.4575    2.9933    0.1167 S   0  0  0  0  0  0  0  0  0  0  0  0
   -4.1673    3.3558    0.9838 O   0  0  0  0  0  0  0  0  0  0  0  0
   -5.5610    1.5553   -0.0525 O   0  0  0  0  0  0  0  0  0  0  0  0
   -6.5415    3.8044    0.6338 O   0  0  0  0  0  0  0  0  0  0  0  0
   -5.0608    3.5603   -1.3621 O   0  0  0  0  0  0  0  0  0  0  0  0
   -5.2608    4.5114   -1.3691 H   0  0  0  0  0  0  0  0  0  0  0  0
  1  2  1  0  0  0  0
  1  4  2  0  0  0  0
  2  3  1  0  0  0  0
  5  4  1  0  0  0  0
  5 10  1  0  0  0  0
  6  5  2  0  0  0  0
  7  8  2  0  0  0  0
  7  6  1  0  0  0  0
  8  1  1  0  0  0  0
  9 15  1  0  0  0  0
 11  6  1  0  0  0  0
 12  7  1  0  0  0  0
 13  8  1  0  0  0  0
 14 17  2  0  0  0  0
 14 15  1  0  0  0  0
 16 14  2  0  0  0  0
 18 14  1  0  0  0  0
 19 18  1  0  0  0  0
M  RAD  3   2   2   3   3   4   2
M  END
