Coordinates from ORCA-job PhN2+~HSO4-_B3LYPG-6-31G_dp-CH-Scan-d09-49-n800
 OpenBabel11261919183D

 19 18  0  0  0  0  0  0  0  0999 V2000
   -1.9596   -0.1845   -0.0578 C   0  0  0  0  0  0  0  0  0  0  0  0
   -3.2744   -0.6211    0.0414 N   0  0  0  0  0  0  0  0  0  0  0  0
   -4.3400   -0.9429    0.1314 N   0  0  0  0  0  0  0  0  0  0  0  0
   -1.7691    1.1783    0.2359 C   0  0  0  0  0  0  0  0  0  0  0  0
   -0.3971    1.5189    0.1134 C   0  0  0  0  0  0  0  0  0  0  0  0
    0.5950    0.6115   -0.2478 C   0  0  0  0  0  0  0  0  0  0  0  0
    0.2952   -0.7427   -0.5244 C   0  0  0  0  0  0  0  0  0  0  0  0
   -1.0100   -1.1734   -0.4323 C   0  0  0  0  0  0  0  0  0  0  0  0
   -3.4364    2.7042    0.7888 H   0  0  0  0  0  0  0  0  0  0  0  0
   -0.0940    2.5457    0.3130 H   0  0  0  0  0  0  0  0  0  0  0  0
    1.6294    0.9409   -0.3230 H   0  0  0  0  0  0  0  0  0  0  0  0
    1.0820   -1.4347   -0.8056 H   0  0  0  0  0  0  0  0  0  0  0  0
   -1.2978   -2.2009   -0.6352 H   0  0  0  0  0  0  0  0  0  0  0  0
   -5.4557    2.9926    0.1168 S   0  0  0  0  0  0  0  0  0  0  0  0
   -4.1646    3.3537    0.9829 O   0  0  0  0  0  0  0  0  0  0  0  0
   -5.5607    1.5548   -0.0528 O   0  0  0  0  0  0  0  0  0  0  0  0
   -6.5388    3.8044    0.6350 O   0  0  0  0  0  0  0  0  0  0  0  0
   -5.0599    3.5597   -1.3622 O   0  0  0  0  0  0  0  0  0  0  0  0
   -5.2591    4.5109   -1.3687 H   0  0  0  0  0  0  0  0  0  0  0  0
  1  2  1  0  0  0  0
  1  4  2  0  0  0  0
  2  3  1  0  0  0  0
  5  4  1  0  0  0  0
  5 10  1  0  0  0  0
  6  5  2  0  0  0  0
  7  8  2  0  0  0  0
  7  6  1  0  0  0  0
  8  1  1  0  0  0  0
  9 15  1  0  0  0  0
 11  6  1  0  0  0  0
 12  7  1  0  0  0  0
 13  8  1  0  0  0  0
 14 17  2  0  0  0  0
 14 15  1  0  0  0  0
 16 14  2  0  0  0  0
 18 14  1  0  0  0  0
 19 18  1  0  0  0  0
M  RAD  3   2   2   3   3   4   2
M  END
