Coordinates from ORCA-job PhN2+~HSO4-_B3LYPG-6-31G_dp-CH-Scan-d09-49-n800
 OpenBabel11261919183D

 19 18  0  0  0  0  0  0  0  0999 V2000
   -2.0049   -0.1713   -0.0575 C   0  0  0  0  0  0  0  0  0  0  0  0
   -3.3124   -0.6281    0.0371 N   0  0  0  0  0  0  0  0  0  0  0  0
   -4.3727   -0.9669    0.1231 N   0  0  0  0  0  0  0  0  0  0  0  0
   -1.8301    1.1972    0.2215 C   0  0  0  0  0  0  0  0  0  0  0  0
   -0.4633    1.5550    0.1047 C   0  0  0  0  0  0  0  0  0  0  0  0
    0.5431    0.6564   -0.2398 C   0  0  0  0  0  0  0  0  0  0  0  0
    0.2620   -0.7035   -0.5032 C   0  0  0  0  0  0  0  0  0  0  0  0
   -1.0386   -1.1495   -0.4148 C   0  0  0  0  0  0  0  0  0  0  0  0
   -3.3368    2.5776    0.7119 H   0  0  0  0  0  0  0  0  0  0  0  0
   -0.1768    2.5879    0.2954 H   0  0  0  0  0  0  0  0  0  0  0  0
    1.5734    0.9986   -0.3113 H   0  0  0  0  0  0  0  0  0  0  0  0
    1.0588   -1.3890   -0.7718 H   0  0  0  0  0  0  0  0  0  0  0  0
   -1.3118   -2.1827   -0.6083 H   0  0  0  0  0  0  0  0  0  0  0  0
   -5.3760    2.9615    0.1203 S   0  0  0  0  0  0  0  0  0  0  0  0
   -4.0470    3.2587    0.9374 O   0  0  0  0  0  0  0  0  0  0  0  0
   -5.5377    1.5310   -0.0781 O   0  0  0  0  0  0  0  0  0  0  0  0
   -6.4193    3.7919    0.6907 O   0  0  0  0  0  0  0  0  0  0  0  0
   -5.0244    3.5476   -1.3650 O   0  0  0  0  0  0  0  0  0  0  0  0
   -5.2010    4.5029   -1.3437 H   0  0  0  0  0  0  0  0  0  0  0  0
  1  2  1  0  0  0  0
  1  4  2  0  0  0  0
  2  3  1  0  0  0  0
  5  4  1  0  0  0  0
  5 10  1  0  0  0  0
  6  5  2  0  0  0  0
  7  8  2  0  0  0  0
  7  6  1  0  0  0  0
  8  1  1  0  0  0  0
  9 15  1  0  0  0  0
 11  6  1  0  0  0  0
 12  7  1  0  0  0  0
 13  8  1  0  0  0  0
 14 17  2  0  0  0  0
 14 15  1  0  0  0  0
 16 14  2  0  0  0  0
 18 19  1  0  0  0  0
 18 14  1  0  0  0  0
M  RAD  3   2   2   3   3   4   2
M  END
