Coordinates from ORCA-job PhN2+~HSO4-_B3LYPG-6-31G_dp-CH-Scan-d09-49-n800
 OpenBabel11261919183D

 19 18  0  0  0  0  0  0  0  0999 V2000
   -2.0158    0.0660   -0.4105 C   0  0  0  0  0  0  0  0  0  0  0  0
   -3.3511   -0.1573   -0.7190 N   0  0  0  0  0  0  0  0  0  0  0  0
   -4.4648   -0.1242   -0.8433 N   0  0  0  0  0  0  0  0  0  0  0  0
   -1.6473    1.3897   -0.1259 C   0  0  0  0  0  0  0  0  0  0  0  0
   -0.3030    1.5882    0.1900 C   0  0  0  0  0  0  0  0  0  0  0  0
    0.5958    0.5188    0.2166 C   0  0  0  0  0  0  0  0  0  0  0  0
    0.1820   -0.7895   -0.0829 C   0  0  0  0  0  0  0  0  0  0  0  0
   -1.1414   -1.0362   -0.4114 C   0  0  0  0  0  0  0  0  0  0  0  0
   -2.5463    2.3264   -0.2007 H   0  0  0  0  0  0  0  0  0  0  0  0
    0.0420    2.5913    0.4196 H   0  0  0  0  0  0  0  0  0  0  0  0
    1.6362    0.6993    0.4711 H   0  0  0  0  0  0  0  0  0  0  0  0
    0.8936   -1.6077   -0.0598 H   0  0  0  0  0  0  0  0  0  0  0  0
   -1.4994   -2.0317   -0.6502 H   0  0  0  0  0  0  0  0  0  0  0  0
   -5.0396    3.0038    0.1817 S   0  0  0  0  0  0  0  0  0  0  0  0
   -3.7411    3.3205   -0.4915 O   0  0  0  0  0  0  0  0  0  0  0  0
   -5.0973    1.5685    0.6011 O   0  0  0  0  0  0  0  0  0  0  0  0
   -5.4918    3.9513    1.2034 O   0  0  0  0  0  0  0  0  0  0  0  0
   -6.1193    3.1455   -1.0664 O   0  0  0  0  0  0  0  0  0  0  0  0
   -6.9068    3.5525   -0.6730 H   0  0  0  0  0  0  0  0  0  0  0  0
  1  4  1  0  0  0  0
  2  1  1  0  0  0  0
  3  2  1  0  0  0  0
  4  5  2  0  0  0  0
  5  6  1  0  0  0  0
  5 10  1  0  0  0  0
  6 11  1  0  0  0  0
  7 12  1  0  0  0  0
  7  6  2  0  0  0  0
  8  1  2  0  0  0  0
  8  7  1  0  0  0  0
  9  4  1  0  0  0  0
 13  8  1  0  0  0  0
 14 16  2  0  0  0  0
 14 17  1  0  0  0  0
 15 14  2  0  0  0  0
 18 19  1  0  0  0  0
 18 14  1  0  0  0  0
M  RAD  3   2   2   3   3  17   2
M  END
