Coordinates from ORCA-job PhN2+~HSO4-_B3LYPG-6-31G_dp-CH-Scan-d09-49-n800
 OpenBabel11261919183D

 19 18  0  0  0  0  0  0  0  0999 V2000
   -1.8554   -0.2156   -0.0541 C   0  0  0  0  0  0  0  0  0  0  0  0
   -3.1854   -0.6065    0.0568 N   0  0  0  0  0  0  0  0  0  0  0  0
   -4.2629   -0.8850    0.1589 N   0  0  0  0  0  0  0  0  0  0  0  0
   -1.6260    1.1318    0.2767 C   0  0  0  0  0  0  0  0  0  0  0  0
   -0.2430    1.4304    0.1396 C   0  0  0  0  0  0  0  0  0  0  0  0
    0.7141    0.5041   -0.2642 C   0  0  0  0  0  0  0  0  0  0  0  0
    0.3687   -0.8333   -0.5741 C   0  0  0  0  0  0  0  0  0  0  0  0
   -0.9471   -1.2264   -0.4726 C   0  0  0  0  0  0  0  0  0  0  0  0
   -3.6610    2.9957    0.9581 H   0  0  0  0  0  0  0  0  0  0  0  0
    0.0987    2.4410    0.3626 H   0  0  0  0  0  0  0  0  0  0  0  0
    1.7574    0.8031   -0.3485 H   0  0  0  0  0  0  0  0  0  0  0  0
    1.1301   -1.5401   -0.8873 H   0  0  0  0  0  0  0  0  0  0  0  0
   -1.2706   -2.2386   -0.6988 H   0  0  0  0  0  0  0  0  0  0  0  0
   -5.6241    3.0639    0.1050 S   0  0  0  0  0  0  0  0  0  0  0  0
   -4.4390    3.5828    1.0608 O   0  0  0  0  0  0  0  0  0  0  0  0
   -5.5778    1.6194    0.0010 O   0  0  0  0  0  0  0  0  0  0  0  0
   -6.8062    3.7971    0.5073 O   0  0  0  0  0  0  0  0  0  0  0  0
   -5.1531    3.6116   -1.3553 O   0  0  0  0  0  0  0  0  0  0  0  0
   -5.4330    4.5401   -1.4232 H   0  0  0  0  0  0  0  0  0  0  0  0
  1  2  1  0  0  0  0
  1  4  2  0  0  0  0
  2  3  1  0  0  0  0
  5  4  1  0  0  0  0
  5 10  1  0  0  0  0
  6  5  2  0  0  0  0
  7  8  2  0  0  0  0
  7  6  1  0  0  0  0
  8  1  1  0  0  0  0
  9 15  1  0  0  0  0
 11  6  1  0  0  0  0
 12  7  1  0  0  0  0
 13  8  1  0  0  0  0
 14 17  2  0  0  0  0
 14 15  1  0  0  0  0
 16 14  2  0  0  0  0
 18 14  1  0  0  0  0
 19 18  1  0  0  0  0
M  RAD  3   2   2   3   3   4   2
M  END
