Coordinates from ORCA-job PhN2+~HSO4-_B3LYPG-6-31G_dp-CH-Scan-d09-49-n800
 OpenBabel11261919183D

 19 18  0  0  0  0  0  0  0  0999 V2000
   -1.9168   -0.1970   -0.0589 C   0  0  0  0  0  0  0  0  0  0  0  0
   -3.2383   -0.6145    0.0429 N   0  0  0  0  0  0  0  0  0  0  0  0
   -4.3089   -0.9188    0.1381 N   0  0  0  0  0  0  0  0  0  0  0  0
   -1.7108    1.1604    0.2469 C   0  0  0  0  0  0  0  0  0  0  0  0
   -0.3338    1.4835    0.1210 C   0  0  0  0  0  0  0  0  0  0  0  0
    0.6449    0.5670   -0.2529 C   0  0  0  0  0  0  0  0  0  0  0  0
    0.3269   -0.7814   -0.5405 C   0  0  0  0  0  0  0  0  0  0  0  0
   -0.9830   -1.1964   -0.4467 C   0  0  0  0  0  0  0  0  0  0  0  0
   -3.5231    2.8228    0.8497 H   0  0  0  0  0  0  0  0  0  0  0  0
   -0.0151    2.5044    0.3284 H   0  0  0  0  0  0  0  0  0  0  0  0
    1.6833    0.8836   -0.3302 H   0  0  0  0  0  0  0  0  0  0  0  0
    1.1041   -1.4804   -0.8312 H   0  0  0  0  0  0  0  0  0  0  0  0
   -1.2850   -2.2184   -0.6573 H   0  0  0  0  0  0  0  0  0  0  0  0
   -5.5269    3.0218    0.1130 S   0  0  0  0  0  0  0  0  0  0  0  0
   -4.2722    3.4440    1.0147 O   0  0  0  0  0  0  0  0  0  0  0  0
   -5.5722    1.5797   -0.0357 O   0  0  0  0  0  0  0  0  0  0  0  0
   -6.6485    3.8036    0.5919 O   0  0  0  0  0  0  0  0  0  0  0  0
   -5.1045    3.5838   -1.3587 O   0  0  0  0  0  0  0  0  0  0  0  0
   -5.3355    4.5277   -1.3858 H   0  0  0  0  0  0  0  0  0  0  0  0
  1  2  1  0  0  0  0
  1  4  2  0  0  0  0
  2  3  1  0  0  0  0
  5  4  1  0  0  0  0
  5 10  1  0  0  0  0
  6  5  2  0  0  0  0
  7  8  2  0  0  0  0
  7  6  1  0  0  0  0
  8  1  1  0  0  0  0
  9 15  1  0  0  0  0
 11  6  1  0  0  0  0
 12  7  1  0  0  0  0
 13  8  1  0  0  0  0
 14 17  2  0  0  0  0
 14 15  1  0  0  0  0
 16 14  2  0  0  0  0
 18 14  1  0  0  0  0
 19 18  1  0  0  0  0
M  RAD  3   2   2   3   3   4   2
M  END
