Coordinates from ORCA-job PhN2+~HSO4-_B3LYPG-6-31G_dp-CH-Scan-d09-49-n800
 OpenBabel11261919183D

 19 18  0  0  0  0  0  0  0  0999 V2000
   -1.9230   -0.1955   -0.0571 C   0  0  0  0  0  0  0  0  0  0  0  0
   -3.2433   -0.6161    0.0464 N   0  0  0  0  0  0  0  0  0  0  0  0
   -4.3138   -0.9234    0.1331 N   0  0  0  0  0  0  0  0  0  0  0  0
   -1.7197    1.1631    0.2454 C   0  0  0  0  0  0  0  0  0  0  0  0
   -0.3436    1.4892    0.1186 C   0  0  0  0  0  0  0  0  0  0  0  0
    0.6370    0.5741   -0.2537 C   0  0  0  0  0  0  0  0  0  0  0  0
    0.3220   -0.7755   -0.5382 C   0  0  0  0  0  0  0  0  0  0  0  0
   -0.9870   -1.1933   -0.4430 C   0  0  0  0  0  0  0  0  0  0  0  0
   -3.5112    2.8045    0.8425 H   0  0  0  0  0  0  0  0  0  0  0  0
   -0.0274    2.5112    0.3239 H   0  0  0  0  0  0  0  0  0  0  0  0
    1.6747    0.8929   -0.3319 H   0  0  0  0  0  0  0  0  0  0  0  0
    1.1007   -1.4735   -0.8275 H   0  0  0  0  0  0  0  0  0  0  0  0
   -1.2866   -2.2165   -0.6511 H   0  0  0  0  0  0  0  0  0  0  0  0
   -5.5165    3.0172    0.1130 S   0  0  0  0  0  0  0  0  0  0  0  0
   -4.2575    3.4292    1.0121 O   0  0  0  0  0  0  0  0  0  0  0  0
   -5.5706    1.5759   -0.0408 O   0  0  0  0  0  0  0  0  0  0  0  0
   -6.6332    3.8032    0.5969 O   0  0  0  0  0  0  0  0  0  0  0  0
   -5.0953    3.5818   -1.3584 O   0  0  0  0  0  0  0  0  0  0  0  0
   -5.3213    4.5269   -1.3816 H   0  0  0  0  0  0  0  0  0  0  0  0
  1  2  1  0  0  0  0
  1  4  2  0  0  0  0
  2  3  1  0  0  0  0
  5  4  1  0  0  0  0
  5 10  1  0  0  0  0
  6  5  2  0  0  0  0
  7  8  2  0  0  0  0
  7  6  1  0  0  0  0
  8  1  1  0  0  0  0
  9 15  1  0  0  0  0
 11  6  1  0  0  0  0
 12  7  1  0  0  0  0
 13  8  1  0  0  0  0
 14 17  2  0  0  0  0
 14 15  1  0  0  0  0
 16 14  2  0  0  0  0
 18 14  1  0  0  0  0
 19 18  1  0  0  0  0
M  RAD  3   2   2   3   3   4   2
M  END
