Coordinates from ORCA-job PhN2+~HSO4-_B3LYPG-6-31G_dp-CH-Scan-d09-49-n800
 OpenBabel11261919183D

 19 18  0  0  0  0  0  0  0  0999 V2000
   -1.5458   -0.2849    0.0683 C   0  0  0  0  0  0  0  0  0  0  0  0
   -2.9015   -0.5279    0.2959 N   0  0  0  0  0  0  0  0  0  0  0  0
   -3.9897   -0.6646    0.5177 N   0  0  0  0  0  0  0  0  0  0  0  0
   -1.1322    0.9529    0.5826 C   0  0  0  0  0  0  0  0  0  0  0  0
    0.2586    1.1228    0.3180 C   0  0  0  0  0  0  0  0  0  0  0  0
    1.0439    0.1887   -0.3499 C   0  0  0  0  0  0  0  0  0  0  0  0
    0.5055   -1.0340   -0.8245 C   0  0  0  0  0  0  0  0  0  0  0  0
   -0.8293   -1.3020   -0.6201 C   0  0  0  0  0  0  0  0  0  0  0  0
   -4.4812    3.7916    1.3656 H   0  0  0  0  0  0  0  0  0  0  0  0
    0.7474    2.0386    0.6540 H   0  0  0  0  0  0  0  0  0  0  0  0
    2.1008    0.3884   -0.5206 H   0  0  0  0  0  0  0  0  0  0  0  0
    1.1377   -1.7497   -1.3403 H   0  0  0  0  0  0  0  0  0  0  0  0
   -1.2986   -2.2218   -0.9592 H   0  0  0  0  0  0  0  0  0  0  0  0
   -6.0404    3.2292    0.0104 S   0  0  0  0  0  0  0  0  0  0  0  0
   -5.3576    4.1565    1.1528 O   0  0  0  0  0  0  0  0  0  0  0  0
   -5.5317    1.8798    0.1306 O   0  0  0  0  0  0  0  0  0  0  0  0
   -7.4457    3.5724    0.0212 O   0  0  0  0  0  0  0  0  0  0  0  0
   -5.3718    3.8279   -1.3450 O   0  0  0  0  0  0  0  0  0  0  0  0
   -5.8840    4.6115   -1.6089 H   0  0  0  0  0  0  0  0  0  0  0  0
  1  2  1  0  0  0  0
  1  4  2  0  0  0  0
  2  3  1  0  0  0  0
  5  4  1  0  0  0  0
  5 10  1  0  0  0  0
  6  5  2  0  0  0  0
  7  8  2  0  0  0  0
  7  6  1  0  0  0  0
  8  1  1  0  0  0  0
 11  6  1  0  0  0  0
 12  7  1  0  0  0  0
 13  8  1  0  0  0  0
 14 17  2  0  0  0  0
 14 16  2  0  0  0  0
 14 15  1  0  0  0  0
 15  9  1  0  0  0  0
 18 14  1  0  0  0  0
 19 18  1  0  0  0  0
M  RAD  3   2   2   3   3   4   2
M  END
