Coordinates from ORCA-job PhN2+~HSO4-_B3LYPG-6-31G_dp-CH-Scan-d09-49-n800
 OpenBabel11261919183D

 19 18  0  0  0  0  0  0  0  0999 V2000
   -1.5929   -0.2835    0.0091 C   0  0  0  0  0  0  0  0  0  0  0  0
   -2.9505   -0.5506    0.1896 N   0  0  0  0  0  0  0  0  0  0  0  0
   -4.0440   -0.7086    0.3662 N   0  0  0  0  0  0  0  0  0  0  0  0
   -1.2317    0.9951    0.4612 C   0  0  0  0  0  0  0  0  0  0  0  0
    0.1651    1.1845    0.2477 C   0  0  0  0  0  0  0  0  0  0  0  0
    1.0024    0.2311   -0.3226 C   0  0  0  0  0  0  0  0  0  0  0  0
    0.5156   -1.0329   -0.7411 C   0  0  0  0  0  0  0  0  0  0  0  0
   -0.8207   -1.3222   -0.5799 C   0  0  0  0  0  0  0  0  0  0  0  0
   -4.3283    3.6847    1.3130 H   0  0  0  0  0  0  0  0  0  0  0  0
    0.6162    2.1323    0.5455 H   0  0  0  0  0  0  0  0  0  0  0  0
    2.0612    0.4476   -0.4579 H   0  0  0  0  0  0  0  0  0  0  0  0
    1.1874   -1.7628   -1.1811 H   0  0  0  0  0  0  0  0  0  0  0  0
   -1.2520   -2.2734   -0.8805 H   0  0  0  0  0  0  0  0  0  0  0  0
   -5.9914    3.2212    0.0461 S   0  0  0  0  0  0  0  0  0  0  0  0
   -5.2015    4.0879    1.1656 O   0  0  0  0  0  0  0  0  0  0  0  0
   -5.5454    1.8460    0.1091 O   0  0  0  0  0  0  0  0  0  0  0  0
   -7.3752    3.6314    0.1442 O   0  0  0  0  0  0  0  0  0  0  0  0
   -5.3715    3.8171   -1.3338 O   0  0  0  0  0  0  0  0  0  0  0  0
   -5.8583    4.6304   -1.5515 H   0  0  0  0  0  0  0  0  0  0  0  0
  1  2  1  0  0  0  0
  1  4  2  0  0  0  0
  2  3  1  0  0  0  0
  5  4  1  0  0  0  0
  5 10  1  0  0  0  0
  6  5  2  0  0  0  0
  7  8  2  0  0  0  0
  7  6  1  0  0  0  0
  8  1  1  0  0  0  0
 11  6  1  0  0  0  0
 12  7  1  0  0  0  0
 13  8  1  0  0  0  0
 14 16  2  0  0  0  0
 14 17  2  0  0  0  0
 14 15  1  0  0  0  0
 15  9  1  0  0  0  0
 18 14  1  0  0  0  0
 19 18  1  0  0  0  0
M  RAD  3   2   2   3   3   4   2
M  END
