Coordinates from ORCA-job PhN2+~HSO4-_B3LYPG-6-31G_dp-CH-Scan-d09-49-n800
 OpenBabel11261919183D

 19 18  0  0  0  0  0  0  0  0999 V2000
   -1.7028   -0.2404    0.8529 C   0  0  0  0  0  0  0  0  0  0  0  0
   -2.8461   -0.8365    1.3928 N   0  0  0  0  0  0  0  0  0  0  0  0
   -3.7125   -1.3350    1.8941 N   0  0  0  0  0  0  0  0  0  0  0  0
   -0.5864   -0.3988    1.6855 C   0  0  0  0  0  0  0  0  0  0  0  0
    0.5319    0.2585    1.0868 C   0  0  0  0  0  0  0  0  0  0  0  0
    0.4781    0.9416   -0.1229 C   0  0  0  0  0  0  0  0  0  0  0  0
   -0.7171    1.0134   -0.8858 C   0  0  0  0  0  0  0  0  0  0  0  0
   -1.8575    0.4055   -0.4051 C   0  0  0  0  0  0  0  0  0  0  0  0
   -3.1914    3.0540   -0.4639 H   0  0  0  0  0  0  0  0  0  0  0  0
    1.4923    0.2309    1.6038 H   0  0  0  0  0  0  0  0  0  0  0  0
    1.3706    1.4277   -0.5138 H   0  0  0  0  0  0  0  0  0  0  0  0
   -0.7231    1.5166   -1.8479 H   0  0  0  0  0  0  0  0  0  0  0  0
   -2.7960    0.3922   -0.9516 H   0  0  0  0  0  0  0  0  0  0  0  0
   -5.2763    2.5562   -0.5260 S   0  0  0  0  0  0  0  0  0  0  0  0
   -4.0120    3.5680   -0.5723 O   0  0  0  0  0  0  0  0  0  0  0  0
   -4.9355    1.4093    0.2916 O   0  0  0  0  0  0  0  0  0  0  0  0
   -6.4393    3.3873   -0.3155 O   0  0  0  0  0  0  0  0  0  0  0  0
   -5.3015    1.9940   -2.0525 O   0  0  0  0  0  0  0  0  0  0  0  0
   -5.7910    2.6307   -2.6015 H   0  0  0  0  0  0  0  0  0  0  0  0
  1  2  1  0  0  0  0
  1  4  2  0  0  0  0
  2  3  1  0  0  0  0
  5 10  1  0  0  0  0
  5  4  1  0  0  0  0
  6  5  2  0  0  0  0
  7  8  2  0  0  0  0
  7  6  1  0  0  0  0
  8  1  1  0  0  0  0
 11  6  1  0  0  0  0
 12  7  1  0  0  0  0
 13  8  1  0  0  0  0
 14 17  2  0  0  0  0
 14 16  2  0  0  0  0
 15 14  1  0  0  0  0
 15  9  1  0  0  0  0
 18 14  1  0  0  0  0
 19 18  1  0  0  0  0
M  RAD  3   2   2   3   3   4   2
M  END
