Coordinates from ORCA-job PhN2+~HSO4-_B3LYPG-6-31G_dp-CH-Scan-d09-49-n800
 OpenBabel11261919183D

 19 18  0  0  0  0  0  0  0  0999 V2000
   -2.0048    0.3393   -0.0114 C   0  0  0  0  0  0  0  0  0  0  0  0
   -3.3963    0.1907    0.0460 N   0  0  0  0  0  0  0  0  0  0  0  0
   -4.3970   -0.3196    0.0726 N   0  0  0  0  0  0  0  0  0  0  0  0
   -1.4053    1.5404    0.3813 C   0  0  0  0  0  0  0  0  0  0  0  0
   -0.0145    1.6039    0.3336 C   0  0  0  0  0  0  0  0  0  0  0  0
    0.7355    0.5092   -0.1035 C   0  0  0  0  0  0  0  0  0  0  0  0
    0.1068   -0.6788   -0.4962 C   0  0  0  0  0  0  0  0  0  0  0  0
   -1.2773   -0.7812   -0.4491 C   0  0  0  0  0  0  0  0  0  0  0  0
   -2.0032    2.3338    0.6722 H   0  0  0  0  0  0  0  0  0  0  0  0
    0.4823    2.5206    0.6333 H   0  0  0  0  0  0  0  0  0  0  0  0
    1.8184    0.5793   -0.1421 H   0  0  0  0  0  0  0  0  0  0  0  0
    0.6946   -1.5250   -0.8359 H   0  0  0  0  0  0  0  0  0  0  0  0
   -1.7918   -1.6893   -0.7431 H   0  0  0  0  0  0  0  0  0  0  0  0
   -5.4140    2.6846    0.0297 S   0  0  0  0  0  0  0  0  0  0  0  0
   -3.9257    2.5693   -0.0584 O   0  0  0  0  0  0  0  0  0  0  0  0
   -6.0263    1.3488    0.2654 O   0  0  0  0  0  0  0  0  0  0  0  0
   -5.9127    3.7756    0.8713 O   0  0  0  0  0  0  0  0  0  0  0  0
   -5.8529    3.1017   -1.5129 O   0  0  0  0  0  0  0  0  0  0  0  0
   -6.4313    3.8722   -1.4040 H   0  0  0  0  0  0  0  0  0  0  0  0
  1  2  1  0  0  0  0
  1  4  2  0  0  0  0
  2  3  1  0  0  0  0
  4  9  1  0  0  0  0
  5  4  1  0  0  0  0
  5 10  1  0  0  0  0
  6  5  2  0  0  0  0
  7  8  2  0  0  0  0
  7  6  1  0  0  0  0
  8  1  1  0  0  0  0
 11  6  1  0  0  0  0
 12  7  1  0  0  0  0
 13  8  1  0  0  0  0
 14 16  2  0  0  0  0
 14 17  1  0  0  0  0
 15 14  2  0  0  0  0
 18 19  1  0  0  0  0
 18 14  1  0  0  0  0
M  RAD  3   2   2   3   3  17   2
M  END
