Coordinates from ORCA-job PhN2+~HSO4-_B3LYPG-6-31G_dp-CH-Scan-d09-49-n800
 OpenBabel11261919183D

 19 18  0  0  0  0  0  0  0  0999 V2000
   -2.0132    0.1021   -0.4172 C   0  0  0  0  0  0  0  0  0  0  0  0
   -3.3520   -0.0927   -0.7377 N   0  0  0  0  0  0  0  0  0  0  0  0
   -4.4690    0.0030   -0.8297 N   0  0  0  0  0  0  0  0  0  0  0  0
   -1.6092    1.4089   -0.1059 C   0  0  0  0  0  0  0  0  0  0  0  0
   -0.2642    1.5783    0.2171 C   0  0  0  0  0  0  0  0  0  0  0  0
    0.6117    0.4892    0.2276 C   0  0  0  0  0  0  0  0  0  0  0  0
    0.1697   -0.8021   -0.0981 C   0  0  0  0  0  0  0  0  0  0  0  0
   -1.1584   -1.0133   -0.4373 C   0  0  0  0  0  0  0  0  0  0  0  0
   -2.4565    2.3397   -0.1712 H   0  0  0  0  0  0  0  0  0  0  0  0
    0.0988    2.5706    0.4639 H   0  0  0  0  0  0  0  0  0  0  0  0
    1.6546    0.6428    0.4887 H   0  0  0  0  0  0  0  0  0  0  0  0
    0.8625   -1.6365   -0.0893 H   0  0  0  0  0  0  0  0  0  0  0  0
   -1.5356   -1.9961   -0.6977 H   0  0  0  0  0  0  0  0  0  0  0  0
   -5.0501    3.0149    0.1659 S   0  0  0  0  0  0  0  0  0  0  0  0
   -3.7841    3.3391   -0.5454 O   0  0  0  0  0  0  0  0  0  0  0  0
   -5.0593    1.5870    0.6409 O   0  0  0  0  0  0  0  0  0  0  0  0
   -5.5152    3.9681    1.1763 O   0  0  0  0  0  0  0  0  0  0  0  0
   -6.1653    3.0739   -1.0575 O   0  0  0  0  0  0  0  0  0  0  0  0
   -6.9808    3.3986   -0.6447 H   0  0  0  0  0  0  0  0  0  0  0  0
  1  4  1  0  0  0  0
  2  1  1  0  0  0  0
  3  2  1  0  0  0  0
  4  5  2  0  0  0  0
  5  6  1  0  0  0  0
  5 10  1  0  0  0  0
  6 11  1  0  0  0  0
  7 12  1  0  0  0  0
  7  6  2  0  0  0  0
  8  1  2  0  0  0  0
  8  7  1  0  0  0  0
  9  4  1  0  0  0  0
 13  8  1  0  0  0  0
 14 16  2  0  0  0  0
 14 17  1  0  0  0  0
 15 14  2  0  0  0  0
 18 19  1  0  0  0  0
 18 14  1  0  0  0  0
M  RAD  3   2   2   3   3  17   2
M  END
