Coordinates from ORCA-job PhN2+~HSO4-_B3LYPG-6-31G_dp-CH-Scan-d09-49-n800
 OpenBabel11261919183D

 19 18  0  0  0  0  0  0  0  0999 V2000
   -1.6898   -0.2638   -0.0479 C   0  0  0  0  0  0  0  0  0  0  0  0
   -3.0420   -0.5770    0.0799 N   0  0  0  0  0  0  0  0  0  0  0  0
   -4.1349   -0.7785    0.2063 N   0  0  0  0  0  0  0  0  0  0  0  0
   -1.3934    1.0532    0.3398 C   0  0  0  0  0  0  0  0  0  0  0  0
    0.0041    1.2821    0.1841 C   0  0  0  0  0  0  0  0  0  0  0  0
    0.9025    0.3276   -0.2824 C   0  0  0  0  0  0  0  0  0  0  0  0
    0.4817   -0.9762   -0.6446 C   0  0  0  0  0  0  0  0  0  0  0  0
   -0.8505   -1.3049   -0.5319 C   0  0  0  0  0  0  0  0  0  0  0  0
   -4.0370    3.4427    1.1680 H   0  0  0  0  0  0  0  0  0  0  0  0
    0.4059    2.2624    0.4438 H   0  0  0  0  0  0  0  0  0  0  0  0
    1.9587    0.5752   -0.3773 H   0  0  0  0  0  0  0  0  0  0  0  0
    1.1996   -1.7058   -1.0051 H   0  0  0  0  0  0  0  0  0  0  0  0
   -1.2325   -2.2876   -0.7949 H   0  0  0  0  0  0  0  0  0  0  0  0
   -5.8675    3.1751    0.0900 S   0  0  0  0  0  0  0  0  0  0  0  0
   -4.8818    3.9252    1.1314 O   0  0  0  0  0  0  0  0  0  0  0  0
   -5.5693    1.7588    0.0806 O   0  0  0  0  0  0  0  0  0  0  0  0
   -7.1836    3.7225    0.3391 O   0  0  0  0  0  0  0  0  0  0  0  0
   -5.3356    3.7387   -1.3402 O   0  0  0  0  0  0  0  0  0  0  0  0
   -5.7503    4.6055   -1.4897 H   0  0  0  0  0  0  0  0  0  0  0  0
  1  2  1  0  0  0  0
  1  4  2  0  0  0  0
  2  3  1  0  0  0  0
  5  4  1  0  0  0  0
  5 10  1  0  0  0  0
  6  5  2  0  0  0  0
  7  8  2  0  0  0  0
  7  6  1  0  0  0  0
  8  1  1  0  0  0  0
 11  6  1  0  0  0  0
 12  7  1  0  0  0  0
 13  8  1  0  0  0  0
 14 17  2  0  0  0  0
 14 15  1  0  0  0  0
 15  9  1  0  0  0  0
 16 14  2  0  0  0  0
 18 14  1  0  0  0  0
 19 18  1  0  0  0  0
M  RAD  3   2   2   3   3   4   2
M  END
