Coordinates from ORCA-job PhN2+~HSO4-_B3LYPG-6-31G_dp-CH-Scan-d09-49-n800
 OpenBabel11261919183D

 19 18  0  0  0  0  0  0  0  0999 V2000
   -1.9533   -0.1864   -0.0577 C   0  0  0  0  0  0  0  0  0  0  0  0
   -3.2691   -0.6201    0.0421 N   0  0  0  0  0  0  0  0  0  0  0  0
   -4.3354   -0.9396    0.1329 N   0  0  0  0  0  0  0  0  0  0  0  0
   -1.7606    1.1757    0.2376 C   0  0  0  0  0  0  0  0  0  0  0  0
   -0.3879    1.5139    0.1143 C   0  0  0  0  0  0  0  0  0  0  0  0
    0.6022    0.6051   -0.2489 C   0  0  0  0  0  0  0  0  0  0  0  0
    0.2998   -0.7482   -0.5269 C   0  0  0  0  0  0  0  0  0  0  0  0
   -1.0061   -1.1768   -0.4343 C   0  0  0  0  0  0  0  0  0  0  0  0
   -3.4494    2.7211    0.7982 H   0  0  0  0  0  0  0  0  0  0  0  0
   -0.0826    2.5399    0.3150 H   0  0  0  0  0  0  0  0  0  0  0  0
    1.6372    0.9327   -0.3246 H   0  0  0  0  0  0  0  0  0  0  0  0
    1.0852   -1.4413   -0.8096 H   0  0  0  0  0  0  0  0  0  0  0  0
   -1.2959   -2.2036   -0.6382 H   0  0  0  0  0  0  0  0  0  0  0  0
   -5.4663    2.9968    0.1160 S   0  0  0  0  0  0  0  0  0  0  0  0
   -4.1806    3.3663    0.9882 O   0  0  0  0  0  0  0  0  0  0  0  0
   -5.5627    1.5583   -0.0512 O   0  0  0  0  0  0  0  0  0  0  0  0
   -6.5551    3.8044    0.6283 O   0  0  0  0  0  0  0  0  0  0  0  0
   -5.0657    3.5634   -1.3616 O   0  0  0  0  0  0  0  0  0  0  0  0
   -5.2693    4.5138   -1.3709 H   0  0  0  0  0  0  0  0  0  0  0  0
  1  2  1  0  0  0  0
  1  4  2  0  0  0  0
  2  3  1  0  0  0  0
  5  4  1  0  0  0  0
  5 10  1  0  0  0  0
  6  5  2  0  0  0  0
  7  8  2  0  0  0  0
  7  6  1  0  0  0  0
  8  1  1  0  0  0  0
  9 15  1  0  0  0  0
 11  6  1  0  0  0  0
 12  7  1  0  0  0  0
 13  8  1  0  0  0  0
 14 17  2  0  0  0  0
 14 15  1  0  0  0  0
 16 14  2  0  0  0  0
 18 14  1  0  0  0  0
 19 18  1  0  0  0  0
M  RAD  3   2   2   3   3   4   2
M  END
