Coordinates from ORCA-job PhN2+~HSO4-_B3LYPG-6-31G_dp-CH-Scan-d09-49-n800
 OpenBabel11261919183D

 19 18  0  0  0  0  0  0  0  0999 V2000
   -2.0133    0.0827   -0.4128 C   0  0  0  0  0  0  0  0  0  0  0  0
   -3.3504   -0.1265   -0.7277 N   0  0  0  0  0  0  0  0  0  0  0  0
   -4.4663   -0.0617   -0.8351 N   0  0  0  0  0  0  0  0  0  0  0  0
   -1.6272    1.3986   -0.1175 C   0  0  0  0  0  0  0  0  0  0  0  0
   -0.2830    1.5840    0.2024 C   0  0  0  0  0  0  0  0  0  0  0  0
    0.6047    0.5048    0.2237 C   0  0  0  0  0  0  0  0  0  0  0  0
    0.1771   -0.7959   -0.0863 C   0  0  0  0  0  0  0  0  0  0  0  0
   -1.1485   -1.0261   -0.4205 C   0  0  0  0  0  0  0  0  0  0  0  0
   -2.5025    2.3304   -0.1901 H   0  0  0  0  0  0  0  0  0  0  0  0
    0.0707    2.5824    0.4387 H   0  0  0  0  0  0  0  0  0  0  0  0
    1.6462    0.6727    0.4815 H   0  0  0  0  0  0  0  0  0  0  0  0
    0.8795   -1.6221   -0.0677 H   0  0  0  0  0  0  0  0  0  0  0  0
   -1.5157   -2.0159   -0.6681 H   0  0  0  0  0  0  0  0  0  0  0  0
   -5.0455    3.0081    0.1689 S   0  0  0  0  0  0  0  0  0  0  0  0
   -3.7658    3.3241   -0.5303 O   0  0  0  0  0  0  0  0  0  0  0  0
   -5.0830    1.5761    0.6162 O   0  0  0  0  0  0  0  0  0  0  0  0
   -5.4947    3.9596    1.1882 O   0  0  0  0  0  0  0  0  0  0  0  0
   -6.1499    3.1145   -1.0610 O   0  0  0  0  0  0  0  0  0  0  0  0
   -6.9480    3.4857   -0.6537 H   0  0  0  0  0  0  0  0  0  0  0  0
  1  4  1  0  0  0  0
  2  1  1  0  0  0  0
  3  2  1  0  0  0  0
  4  5  2  0  0  0  0
  5  6  1  0  0  0  0
  5 10  1  0  0  0  0
  6 11  1  0  0  0  0
  7 12  1  0  0  0  0
  7  6  2  0  0  0  0
  8  1  2  0  0  0  0
  8  7  1  0  0  0  0
  9  4  1  0  0  0  0
 13  8  1  0  0  0  0
 14 16  2  0  0  0  0
 14 17  1  0  0  0  0
 15 14  2  0  0  0  0
 18 19  1  0  0  0  0
 18 14  1  0  0  0  0
M  RAD  3   2   2   3   3  17   2
M  END
