Coordinates from ORCA-job PhN2+~HSO4-_B3LYPG-6-31G_dp-CH-Scan-d09-49-n800
 OpenBabel11261919183D

 19 18  0  0  0  0  0  0  0  0999 V2000
   -2.0130    0.3410   -0.0045 C   0  0  0  0  0  0  0  0  0  0  0  0
   -3.4034    0.1844    0.0576 N   0  0  0  0  0  0  0  0  0  0  0  0
   -4.4028   -0.3279    0.0912 N   0  0  0  0  0  0  0  0  0  0  0  0
   -1.4177    1.5439    0.3905 C   0  0  0  0  0  0  0  0  0  0  0  0
   -0.0267    1.6098    0.3372 C   0  0  0  0  0  0  0  0  0  0  0  0
    0.7266    0.5204   -0.1070 C   0  0  0  0  0  0  0  0  0  0  0  0
    0.1006   -0.6680   -0.5016 C   0  0  0  0  0  0  0  0  0  0  0  0
   -1.2831   -0.7749   -0.4489 C   0  0  0  0  0  0  0  0  0  0  0  0
   -1.9680    2.2854    0.6710 H   0  0  0  0  0  0  0  0  0  0  0  0
    0.4675    2.5274    0.6388 H   0  0  0  0  0  0  0  0  0  0  0  0
    1.8090    0.5951   -0.1495 H   0  0  0  0  0  0  0  0  0  0  0  0
    0.6896   -1.5111   -0.8470 H   0  0  0  0  0  0  0  0  0  0  0  0
   -1.7957   -1.6835   -0.7441 H   0  0  0  0  0  0  0  0  0  0  0  0
   -5.4059    2.6806    0.0261 S   0  0  0  0  0  0  0  0  0  0  0  0
   -3.9188    2.5489   -0.0606 O   0  0  0  0  0  0  0  0  0  0  0  0
   -6.0313    1.3520    0.2659 O   0  0  0  0  0  0  0  0  0  0  0  0
   -5.8929    3.7800    0.8636 O   0  0  0  0  0  0  0  0  0  0  0  0
   -5.8391    3.0980   -1.5182 O   0  0  0  0  0  0  0  0  0  0  0  0
   -6.4107    3.8739   -1.4118 H   0  0  0  0  0  0  0  0  0  0  0  0
  1  2  1  0  0  0  0
  1  4  2  0  0  0  0
  2  3  1  0  0  0  0
  4  9  1  0  0  0  0
  5  4  1  0  0  0  0
  5 10  1  0  0  0  0
  6  5  2  0  0  0  0
  7  8  2  0  0  0  0
  7  6  1  0  0  0  0
  8  1  1  0  0  0  0
 11  6  1  0  0  0  0
 12  7  1  0  0  0  0
 13  8  1  0  0  0  0
 14 16  2  0  0  0  0
 14 17  1  0  0  0  0
 15 14  2  0  0  0  0
 18 19  1  0  0  0  0
 18 14  1  0  0  0  0
M  RAD  3   2   2   3   3  17   2
M  END
