Coordinates from ORCA-job PhN2+~HSO4-_B3LYPG-6-31G_dp-CH-Scan-d09-49-n800
 OpenBabel11261919183D

 19 18  0  0  0  0  0  0  0  0999 V2000
   -2.0631   -0.0455   -0.2974 C   0  0  0  0  0  0  0  0  0  0  0  0
   -3.3863   -0.4271   -0.4636 N   0  0  0  0  0  0  0  0  0  0  0  0
   -4.4588   -0.7058   -0.5914 N   0  0  0  0  0  0  0  0  0  0  0  0
   -1.8421    1.3155   -0.0151 C   0  0  0  0  0  0  0  0  0  0  0  0
   -0.4642    1.5916    0.1333 C   0  0  0  0  0  0  0  0  0  0  0  0
    0.5291    0.6226    0.0111 C   0  0  0  0  0  0  0  0  0  0  0  0
    0.2135   -0.7223   -0.2770 C   0  0  0  0  0  0  0  0  0  0  0  0
   -1.1069   -1.0843   -0.4392 C   0  0  0  0  0  0  0  0  0  0  0  0
   -2.9922    2.5254    0.1828 H   0  0  0  0  0  0  0  0  0  0  0  0
   -0.1617    2.6123    0.3578 H   0  0  0  0  0  0  0  0  0  0  0  0
    1.5731    0.8993    0.1395 H   0  0  0  0  0  0  0  0  0  0  0  0
    0.9984   -1.4653   -0.3705 H   0  0  0  0  0  0  0  0  0  0  0  0
   -1.4039   -2.1044   -0.6626 H   0  0  0  0  0  0  0  0  0  0  0  0
   -5.1586    2.9683    0.3585 S   0  0  0  0  0  0  0  0  0  0  0  0
   -3.6504    3.3743    0.3500 O   0  0  0  0  0  0  0  0  0  0  0  0
   -5.3014    1.5463    0.6557 O   0  0  0  0  0  0  0  0  0  0  0  0
   -5.9222    3.9727    1.0807 O   0  0  0  0  0  0  0  0  0  0  0  0
   -5.5824    3.0883   -1.2266 O   0  0  0  0  0  0  0  0  0  0  0  0
   -5.8356    4.0135   -1.3772 H   0  0  0  0  0  0  0  0  0  0  0  0
  1  4  1  0  0  0  0
  2  1  1  0  0  0  0
  3  2  1  0  0  0  0
  4  5  2  0  0  0  0
  5 10  1  0  0  0  0
  6  5  1  0  0  0  0
  6 11  1  0  0  0  0
  7  6  2  0  0  0  0
  8  1  2  0  0  0  0
  8  7  1  0  0  0  0
  9 15  1  0  0  0  0
 12  7  1  0  0  0  0
 13  8  1  0  0  0  0
 14 16  2  0  0  0  0
 14 17  2  0  0  0  0
 15 14  1  0  0  0  0
 18 14  1  0  0  0  0
 19 18  1  0  0  0  0
M  RAD  3   2   2   3   3   4   2
M  END
