Coordinates from ORCA-job PhN2+~HSO4-_B3LYPG-6-31G_dp-CH-Scan-d09-49-n800
 OpenBabel11261919183D

 19 18  0  0  0  0  0  0  0  0999 V2000
   -1.8582   -0.2144   -0.0551 C   0  0  0  0  0  0  0  0  0  0  0  0
   -3.1881   -0.6061    0.0547 N   0  0  0  0  0  0  0  0  0  0  0  0
   -4.2651   -0.8859    0.1580 N   0  0  0  0  0  0  0  0  0  0  0  0
   -1.6296    1.1333    0.2747 C   0  0  0  0  0  0  0  0  0  0  0  0
   -0.2467    1.4328    0.1389 C   0  0  0  0  0  0  0  0  0  0  0  0
    0.7114    0.5067   -0.2630 C   0  0  0  0  0  0  0  0  0  0  0  0
    0.3671   -0.8312   -0.5720 C   0  0  0  0  0  0  0  0  0  0  0  0
   -0.9487   -1.2250   -0.4716 C   0  0  0  0  0  0  0  0  0  0  0  0
   -3.6539    2.9875    0.9516 H   0  0  0  0  0  0  0  0  0  0  0  0
    0.0939    2.4438    0.3612 H   0  0  0  0  0  0  0  0  0  0  0  0
    1.7546    0.8062   -0.3464 H   0  0  0  0  0  0  0  0  0  0  0  0
    1.1292   -1.5378   -0.8838 H   0  0  0  0  0  0  0  0  0  0  0  0
   -1.2714   -2.2375   -0.6973 H   0  0  0  0  0  0  0  0  0  0  0  0
   -5.6198    3.0620    0.1057 S   0  0  0  0  0  0  0  0  0  0  0  0
   -4.4303    3.5765    1.0578 O   0  0  0  0  0  0  0  0  0  0  0  0
   -5.5781    1.6173   -0.0006 O   0  0  0  0  0  0  0  0  0  0  0  0
   -6.7986    3.7978    0.5131 O   0  0  0  0  0  0  0  0  0  0  0  0
   -5.1528    3.6101   -1.3557 O   0  0  0  0  0  0  0  0  0  0  0  0
   -5.4305    4.5394   -1.4215 H   0  0  0  0  0  0  0  0  0  0  0  0
  1  2  1  0  0  0  0
  1  4  2  0  0  0  0
  2  3  1  0  0  0  0
  5  4  1  0  0  0  0
  5 10  1  0  0  0  0
  6  5  2  0  0  0  0
  7  8  2  0  0  0  0
  7  6  1  0  0  0  0
  8  1  1  0  0  0  0
  9 15  1  0  0  0  0
 11  6  1  0  0  0  0
 12  7  1  0  0  0  0
 13  8  1  0  0  0  0
 14 17  2  0  0  0  0
 14 15  1  0  0  0  0
 16 14  2  0  0  0  0
 18 14  1  0  0  0  0
 19 18  1  0  0  0  0
M  RAD  3   2   2   3   3   4   2
M  END
