Coordinates from ORCA-job PhN2+~HSO4-_B3LYPG-6-31G_dp-CH-Scan-d09-49-n800
 OpenBabel11261919183D

 19 18  0  0  0  0  0  0  0  0999 V2000
   -1.9406   -0.1901   -0.0580 C   0  0  0  0  0  0  0  0  0  0  0  0
   -3.2584   -0.6181    0.0428 N   0  0  0  0  0  0  0  0  0  0  0  0
   -4.3262   -0.9324    0.1349 N   0  0  0  0  0  0  0  0  0  0  0  0
   -1.7434    1.1705    0.2405 C   0  0  0  0  0  0  0  0  0  0  0  0
   -0.3693    1.5036    0.1161 C   0  0  0  0  0  0  0  0  0  0  0  0
    0.6169    0.5921   -0.2506 C   0  0  0  0  0  0  0  0  0  0  0  0
    0.3092   -0.7597   -0.5314 C   0  0  0  0  0  0  0  0  0  0  0  0
   -0.9980   -1.1837   -0.4381 C   0  0  0  0  0  0  0  0  0  0  0  0
   -3.4752    2.7551    0.8160 H   0  0  0  0  0  0  0  0  0  0  0  0
   -0.0594    2.5280    0.3187 H   0  0  0  0  0  0  0  0  0  0  0  0
    1.6531    0.9159   -0.3270 H   0  0  0  0  0  0  0  0  0  0  0  0
    1.0918   -1.4549   -0.8167 H   0  0  0  0  0  0  0  0  0  0  0  0
   -1.2920   -2.2089   -0.6440 H   0  0  0  0  0  0  0  0  0  0  0  0
   -5.4875    3.0054    0.1147 S   0  0  0  0  0  0  0  0  0  0  0  0
   -4.2123    3.3921    0.9979 O   0  0  0  0  0  0  0  0  0  0  0  0
   -5.5667    1.5655   -0.0473 O   0  0  0  0  0  0  0  0  0  0  0  0
   -6.5876    3.8043    0.6158 O   0  0  0  0  0  0  0  0  0  0  0  0
   -5.0787    3.5713   -1.3604 O   0  0  0  0  0  0  0  0  0  0  0  0
   -5.2914    4.5196   -1.3752 H   0  0  0  0  0  0  0  0  0  0  0  0
  1  2  1  0  0  0  0
  1  4  2  0  0  0  0
  2  3  1  0  0  0  0
  5  4  1  0  0  0  0
  5 10  1  0  0  0  0
  6  5  2  0  0  0  0
  7  8  2  0  0  0  0
  7  6  1  0  0  0  0
  8  1  1  0  0  0  0
  9 15  1  0  0  0  0
 11  6  1  0  0  0  0
 12  7  1  0  0  0  0
 13  8  1  0  0  0  0
 14 17  2  0  0  0  0
 14 15  1  0  0  0  0
 16 14  2  0  0  0  0
 18 14  1  0  0  0  0
 19 18  1  0  0  0  0
M  RAD  3   2   2   3   3   4   2
M  END
