Coordinates from ORCA-job PhN2+~HSO4-_B3LYPG-6-31G_dp-CH-Scan-d09-49-n800
 OpenBabel11261919183D

 19 18  0  0  0  0  0  0  0  0999 V2000
   -2.0635   -0.0441   -0.2999 C   0  0  0  0  0  0  0  0  0  0  0  0
   -3.3866   -0.4246   -0.4689 N   0  0  0  0  0  0  0  0  0  0  0  0
   -4.4590   -0.7024   -0.5988 N   0  0  0  0  0  0  0  0  0  0  0  0
   -1.8418    1.3170   -0.0181 C   0  0  0  0  0  0  0  0  0  0  0  0
   -0.4641    1.5921    0.1334 C   0  0  0  0  0  0  0  0  0  0  0  0
    0.5287    0.6222    0.0141 C   0  0  0  0  0  0  0  0  0  0  0  0
    0.2126   -0.7227   -0.2738 C   0  0  0  0  0  0  0  0  0  0  0  0
   -1.1077   -1.0837   -0.4388 C   0  0  0  0  0  0  0  0  0  0  0  0
   -2.9884    2.5238    0.1760 H   0  0  0  0  0  0  0  0  0  0  0  0
   -0.1614    2.6127    0.3578 H   0  0  0  0  0  0  0  0  0  0  0  0
    1.5725    0.8981    0.1447 H   0  0  0  0  0  0  0  0  0  0  0  0
    0.9971   -1.4663   -0.3649 H   0  0  0  0  0  0  0  0  0  0  0  0
   -1.4051   -2.1037   -0.6622 H   0  0  0  0  0  0  0  0  0  0  0  0
   -5.1553    2.9680    0.3594 S   0  0  0  0  0  0  0  0  0  0  0  0
   -3.6477    3.3748    0.3407 O   0  0  0  0  0  0  0  0  0  0  0  0
   -5.2952    1.5460    0.6591 O   0  0  0  0  0  0  0  0  0  0  0  0
   -5.9158    3.9723    1.0851 O   0  0  0  0  0  0  0  0  0  0  0  0
   -5.5895    3.0856   -1.2231 O   0  0  0  0  0  0  0  0  0  0  0  0
   -5.8454    4.0102   -1.3730 H   0  0  0  0  0  0  0  0  0  0  0  0
  1  4  1  0  0  0  0
  2  1  1  0  0  0  0
  3  2  1  0  0  0  0
  4  5  2  0  0  0  0
  5 10  1  0  0  0  0
  6  5  1  0  0  0  0
  6 11  1  0  0  0  0
  7  6  2  0  0  0  0
  8  1  2  0  0  0  0
  8  7  1  0  0  0  0
  9 15  1  0  0  0  0
 12  7  1  0  0  0  0
 13  8  1  0  0  0  0
 14 16  2  0  0  0  0
 14 17  2  0  0  0  0
 15 14  1  0  0  0  0
 18 14  1  0  0  0  0
 19 18  1  0  0  0  0
M  RAD  3   2   2   3   3   4   2
M  END
