Coordinates from ORCA-job PhN2+~HSO4-_B3LYPG-6-31G_dp-CH-Scan-d09-49-n800
 OpenBabel11261919183D

 19 18  0  0  0  0  0  0  0  0999 V2000
   -2.0316   -0.1680   -0.0123 C   0  0  0  0  0  0  0  0  0  0  0  0
   -3.3301   -0.6383    0.1237 N   0  0  0  0  0  0  0  0  0  0  0  0
   -4.3835   -0.9869    0.2432 N   0  0  0  0  0  0  0  0  0  0  0  0
   -1.8624    1.2061    0.2421 C   0  0  0  0  0  0  0  0  0  0  0  0
   -0.5048    1.5788    0.0855 C   0  0  0  0  0  0  0  0  0  0  0  0
    0.5027    0.6862   -0.2719 C   0  0  0  0  0  0  0  0  0  0  0  0
    0.2302   -0.6800   -0.5080 C   0  0  0  0  0  0  0  0  0  0  0  0
   -1.0627   -1.1393   -0.3796 C   0  0  0  0  0  0  0  0  0  0  0  0
   -3.2968    2.4768    0.7048 H   0  0  0  0  0  0  0  0  0  0  0  0
   -0.2272    2.6179    0.2538 H   0  0  0  0  0  0  0  0  0  0  0  0
    1.5267    1.0388   -0.3751 H   0  0  0  0  0  0  0  0  0  0  0  0
    1.0274   -1.3608   -0.7869 H   0  0  0  0  0  0  0  0  0  0  0  0
   -1.3287   -2.1781   -0.5511 H   0  0  0  0  0  0  0  0  0  0  0  0
   -5.3169    2.9206    0.0566 S   0  0  0  0  0  0  0  0  0  0  0  0
   -4.0282    3.1508    0.9452 O   0  0  0  0  0  0  0  0  0  0  0  0
   -5.4430    1.5148   -0.2958 O   0  0  0  0  0  0  0  0  0  0  0  0
   -6.4036    3.6668    0.6639 O   0  0  0  0  0  0  0  0  0  0  0  0
   -4.9297    3.6649   -1.3484 O   0  0  0  0  0  0  0  0  0  0  0  0
   -5.1535    4.6042   -1.2409 H   0  0  0  0  0  0  0  0  0  0  0  0
  1  2  1  0  0  0  0
  1  4  2  0  0  0  0
  2  3  1  0  0  0  0
  5  4  1  0  0  0  0
  5 10  1  0  0  0  0
  6  5  2  0  0  0  0
  7  8  2  0  0  0  0
  7  6  1  0  0  0  0
  8  1  1  0  0  0  0
  9 15  1  0  0  0  0
 11  6  1  0  0  0  0
 12  7  1  0  0  0  0
 13  8  1  0  0  0  0
 14 17  2  0  0  0  0
 14 15  1  0  0  0  0
 16 14  2  0  0  0  0
 18 19  1  0  0  0  0
 18 14  1  0  0  0  0
M  RAD  3   2   2   3   3   4   2
M  END
