Coordinates from ORCA-job PhN2+~HSO4-_B3LYPG-6-31G_dp-CH-Scan-d09-49-n800
 OpenBabel11261919183D

 19 18  0  0  0  0  0  0  0  0999 V2000
   -1.7163   -0.2532    0.8494 C   0  0  0  0  0  0  0  0  0  0  0  0
   -2.8488   -0.8700    1.3893 N   0  0  0  0  0  0  0  0  0  0  0  0
   -3.7062   -1.3836    1.8906 N   0  0  0  0  0  0  0  0  0  0  0  0
   -0.5975   -0.3888    1.6827 C   0  0  0  0  0  0  0  0  0  0  0  0
    0.5073    0.2925    1.0852 C   0  0  0  0  0  0  0  0  0  0  0  0
    0.4397    0.9769   -0.1229 C   0  0  0  0  0  0  0  0  0  0  0  0
   -0.7558    1.0227   -0.8878 C   0  0  0  0  0  0  0  0  0  0  0  0
   -1.8832    0.3889   -0.4091 C   0  0  0  0  0  0  0  0  0  0  0  0
   -3.1346    2.9888   -0.4778 H   0  0  0  0  0  0  0  0  0  0  0  0
    1.4678    0.2839    1.6025 H   0  0  0  0  0  0  0  0  0  0  0  0
    1.3217    1.4833   -0.5120 H   0  0  0  0  0  0  0  0  0  0  0  0
   -0.7709    1.5238   -1.8510 H   0  0  0  0  0  0  0  0  0  0  0  0
   -2.8196    0.3531   -0.9582 H   0  0  0  0  0  0  0  0  0  0  0  0
   -5.2363    2.5626   -0.5181 S   0  0  0  0  0  0  0  0  0  0  0  0
   -3.9389    3.5297   -0.5811 O   0  0  0  0  0  0  0  0  0  0  0  0
   -4.9331    1.4138    0.3115 O   0  0  0  0  0  0  0  0  0  0  0  0
   -6.3694    3.4357   -0.3135 O   0  0  0  0  0  0  0  0  0  0  0  0
   -5.2871    1.9836   -2.0382 O   0  0  0  0  0  0  0  0  0  0  0  0
   -5.7544    2.6317   -2.5930 H   0  0  0  0  0  0  0  0  0  0  0  0
  1  2  1  0  0  0  0
  1  4  2  0  0  0  0
  2  3  1  0  0  0  0
  5 10  1  0  0  0  0
  5  4  1  0  0  0  0
  6  5  2  0  0  0  0
  7  8  2  0  0  0  0
  7  6  1  0  0  0  0
  8  1  1  0  0  0  0
 11  6  1  0  0  0  0
 12  7  1  0  0  0  0
 13  8  1  0  0  0  0
 14 17  2  0  0  0  0
 14 16  2  0  0  0  0
 15 14  1  0  0  0  0
 15  9  1  0  0  0  0
 18 14  1  0  0  0  0
 19 18  1  0  0  0  0
M  RAD  3   2   2   3   3   4   2
M  END
