Coordinates from ORCA-job PhN2+~HSO4-_B3LYPG-6-31G_dp-CH-Scan-d09-49-n800
 OpenBabel11261919183D

 19 18  0  0  0  0  0  0  0  0999 V2000
   -1.9743    0.3167   -0.1060 C   0  0  0  0  0  0  0  0  0  0  0  0
   -3.3654    0.1798   -0.1280 N   0  0  0  0  0  0  0  0  0  0  0  0
   -4.3918   -0.2753   -0.1620 N   0  0  0  0  0  0  0  0  0  0  0  0
   -1.3887    1.5375    0.2426 C   0  0  0  0  0  0  0  0  0  0  0  0
    0.0013    1.5966    0.2815 C   0  0  0  0  0  0  0  0  0  0  0  0
    0.7666    0.4684   -0.0260 C   0  0  0  0  0  0  0  0  0  0  0  0
    0.1549   -0.7425   -0.3769 C   0  0  0  0  0  0  0  0  0  0  0  0
   -1.2293   -0.8360   -0.4182 C   0  0  0  0  0  0  0  0  0  0  0  0
   -2.1083    2.4553    0.4542 H   0  0  0  0  0  0  0  0  0  0  0  0
    0.4867    2.5292    0.5482 H   0  0  0  0  0  0  0  0  0  0  0  0
    1.8505    0.5293    0.0050 H   0  0  0  0  0  0  0  0  0  0  0  0
    0.7576   -1.6123   -0.6158 H   0  0  0  0  0  0  0  0  0  0  0  0
   -1.7311   -1.7603   -0.6821 H   0  0  0  0  0  0  0  0  0  0  0  0
   -5.4063    2.7265    0.0531 S   0  0  0  0  0  0  0  0  0  0  0  0
   -3.9343    2.6527   -0.1790 O   0  0  0  0  0  0  0  0  0  0  0  0
   -5.9768    1.3601    0.2356 O   0  0  0  0  0  0  0  0  0  0  0  0
   -5.8576    3.7258    1.0252 O   0  0  0  0  0  0  0  0  0  0  0  0
   -5.9729    3.2579   -1.4100 O   0  0  0  0  0  0  0  0  0  0  0  0
   -6.6964    3.8661   -1.1927 H   0  0  0  0  0  0  0  0  0  0  0  0
  1  4  2  0  0  0  0
  2  1  1  0  0  0  0
  3  2  1  0  0  0  0
  4  5  1  0  0  0  0
  4  9  1  0  0  0  0
  5 10  1  0  0  0  0
  6 11  1  0  0  0  0
  6  5  2  0  0  0  0
  7  6  1  0  0  0  0
  8  7  2  0  0  0  0
  8  1  1  0  0  0  0
 12  7  1  0  0  0  0
 13  8  1  0  0  0  0
 14 16  2  0  0  0  0
 14 17  1  0  0  0  0
 15 14  2  0  0  0  0
 18 19  1  0  0  0  0
 18 14  1  0  0  0  0
M  RAD  3   2   2   3   3  17   2
M  END
