Coordinates from ORCA-job PhN2+~HSO4-_B3LYPG-6-31G_dp-CH-Scan-d09-49-n800
 OpenBabel11261919183D

 19 18  0  0  0  0  0  0  0  0999 V2000
   -1.6192   -0.2798   -0.0097 C   0  0  0  0  0  0  0  0  0  0  0  0
   -2.9760   -0.5600    0.1544 N   0  0  0  0  0  0  0  0  0  0  0  0
   -4.0699   -0.7301    0.3160 N   0  0  0  0  0  0  0  0  0  0  0  0
   -1.2779    1.0112    0.4229 C   0  0  0  0  0  0  0  0  0  0  0  0
    0.1198    1.2114    0.2272 C   0  0  0  0  0  0  0  0  0  0  0  0
    0.9760    0.2562   -0.3113 C   0  0  0  0  0  0  0  0  0  0  0  0
    0.5090   -1.0206   -0.7127 C   0  0  0  0  0  0  0  0  0  0  0  0
   -0.8265   -1.3209   -0.5665 C   0  0  0  0  0  0  0  0  0  0  0  0
   -4.2495    3.6322    1.2796 H   0  0  0  0  0  0  0  0  0  0  0  0
    0.5564    2.1695    0.5135 H   0  0  0  0  0  0  0  0  0  0  0  0
    2.0344    0.4815   -0.4342 H   0  0  0  0  0  0  0  0  0  0  0  0
    1.1951   -1.7516   -1.1283 H   0  0  0  0  0  0  0  0  0  0  0  0
   -1.2432   -2.2822   -0.8557 H   0  0  0  0  0  0  0  0  0  0  0  0
   -5.9582    3.2097    0.0597 S   0  0  0  0  0  0  0  0  0  0  0  0
   -5.1197    4.0516    1.1618 O   0  0  0  0  0  0  0  0  0  0  0  0
   -5.5452    1.8234    0.1038 O   0  0  0  0  0  0  0  0  0  0  0  0
   -7.3288    3.6524    0.1957 O   0  0  0  0  0  0  0  0  0  0  0  0
   -5.3603    3.7973   -1.3336 O   0  0  0  0  0  0  0  0  0  0  0  0
   -5.8320    4.6239   -1.5339 H   0  0  0  0  0  0  0  0  0  0  0  0
  1  2  1  0  0  0  0
  1  4  2  0  0  0  0
  2  3  1  0  0  0  0
  5  4  1  0  0  0  0
  5 10  1  0  0  0  0
  6  5  2  0  0  0  0
  7  8  2  0  0  0  0
  7  6  1  0  0  0  0
  8  1  1  0  0  0  0
 11  6  1  0  0  0  0
 12  7  1  0  0  0  0
 13  8  1  0  0  0  0
 14 16  2  0  0  0  0
 14 17  2  0  0  0  0
 14 15  1  0  0  0  0
 15  9  1  0  0  0  0
 18 14  1  0  0  0  0
 19 18  1  0  0  0  0
M  RAD  3   2   2   3   3   4   2
M  END
