Coordinates from ORCA-job PhN2+~HSO4-_B3LYPG-6-31G_dp-CH-Scan-d09-49-n800
 OpenBabel11261919183D

 19 18  0  0  0  0  0  0  0  0999 V2000
   -1.8609   -0.2134   -0.0565 C   0  0  0  0  0  0  0  0  0  0  0  0
   -3.1907   -0.6061    0.0514 N   0  0  0  0  0  0  0  0  0  0  0  0
   -4.2669   -0.8869    0.1591 N   0  0  0  0  0  0  0  0  0  0  0  0
   -1.6333    1.1346    0.2727 C   0  0  0  0  0  0  0  0  0  0  0  0
   -0.2505    1.4350    0.1385 C   0  0  0  0  0  0  0  0  0  0  0  0
    0.7087    0.5091   -0.2614 C   0  0  0  0  0  0  0  0  0  0  0  0
    0.3655   -0.8291   -0.5701 C   0  0  0  0  0  0  0  0  0  0  0  0
   -0.9502   -1.2236   -0.4712 C   0  0  0  0  0  0  0  0  0  0  0  0
   -3.6467    2.9795    0.9448 H   0  0  0  0  0  0  0  0  0  0  0  0
    0.0892    2.4464    0.3606 H   0  0  0  0  0  0  0  0  0  0  0  0
    1.7518    0.8092   -0.3436 H   0  0  0  0  0  0  0  0  0  0  0  0
    1.1284   -1.5355   -0.8804 H   0  0  0  0  0  0  0  0  0  0  0  0
   -1.2719   -2.2364   -0.6968 H   0  0  0  0  0  0  0  0  0  0  0  0
   -5.6157    3.0604    0.1066 S   0  0  0  0  0  0  0  0  0  0  0  0
   -4.4213    3.5707    1.0543 O   0  0  0  0  0  0  0  0  0  0  0  0
   -5.5787    1.6156   -0.0014 O   0  0  0  0  0  0  0  0  0  0  0  0
   -6.7910    3.7989    0.5190 O   0  0  0  0  0  0  0  0  0  0  0  0
   -5.1530    3.6083   -1.3564 O   0  0  0  0  0  0  0  0  0  0  0  0
   -5.4283    4.5385   -1.4203 H   0  0  0  0  0  0  0  0  0  0  0  0
  1  2  1  0  0  0  0
  1  4  2  0  0  0  0
  2  3  1  0  0  0  0
  5  4  1  0  0  0  0
  5 10  1  0  0  0  0
  6  5  2  0  0  0  0
  7  8  2  0  0  0  0
  7  6  1  0  0  0  0
  8  1  1  0  0  0  0
  9 15  1  0  0  0  0
 11  6  1  0  0  0  0
 12  7  1  0  0  0  0
 13  8  1  0  0  0  0
 14 17  2  0  0  0  0
 14 15  1  0  0  0  0
 16 14  2  0  0  0  0
 18 14  1  0  0  0  0
 19 18  1  0  0  0  0
M  RAD  3   2   2   3   3   4   2
M  END
