Coordinates from ORCA-job PhN2+~HSO4-_B3LYPG-6-31G_dp-CH-Scan-d09-49-n800
 OpenBabel11261919183D

 19 18  0  0  0  0  0  0  0  0999 V2000
   -1.5589   -0.2849    0.0410 C   0  0  0  0  0  0  0  0  0  0  0  0
   -2.9166   -0.5343    0.2475 N   0  0  0  0  0  0  0  0  0  0  0  0
   -4.0087   -0.6774    0.4448 N   0  0  0  0  0  0  0  0  0  0  0  0
   -1.1659    0.9716    0.5258 C   0  0  0  0  0  0  0  0  0  0  0  0
    0.2284    1.1457    0.2843 C   0  0  0  0  0  0  0  0  0  0  0  0
    1.0352    0.1988   -0.3385 C   0  0  0  0  0  0  0  0  0  0  0  0
    0.5169   -1.0425   -0.7864 C   0  0  0  0  0  0  0  0  0  0  0  0
   -0.8196   -1.3159   -0.6012 C   0  0  0  0  0  0  0  0  0  0  0  0
   -4.4321    3.7543    1.3504 H   0  0  0  0  0  0  0  0  0  0  0  0
    0.7026    2.0756    0.6021 H   0  0  0  0  0  0  0  0  0  0  0  0
    2.0937    0.4027   -0.4934 H   0  0  0  0  0  0  0  0  0  0  0  0
    1.1656   -1.7679   -1.2669 H   0  0  0  0  0  0  0  0  0  0  0  0
   -1.2741   -2.2496   -0.9218 H   0  0  0  0  0  0  0  0  0  0  0  0
   -6.0310    3.2312    0.0256 S   0  0  0  0  0  0  0  0  0  0  0  0
   -5.3083    4.1336    1.1631 O   0  0  0  0  0  0  0  0  0  0  0  0
   -5.5425    1.8722    0.1184 O   0  0  0  0  0  0  0  0  0  0  0  0
   -7.4298    3.5971    0.0719 O   0  0  0  0  0  0  0  0  0  0  0  0
   -5.3828    3.8350   -1.3375 O   0  0  0  0  0  0  0  0  0  0  0  0
   -5.8878    4.6300   -1.5805 H   0  0  0  0  0  0  0  0  0  0  0  0
  1  2  1  0  0  0  0
  1  4  2  0  0  0  0
  2  3  1  0  0  0  0
  5  4  1  0  0  0  0
  5 10  1  0  0  0  0
  6  5  2  0  0  0  0
  7  8  2  0  0  0  0
  7  6  1  0  0  0  0
  8  1  1  0  0  0  0
 11  6  1  0  0  0  0
 12  7  1  0  0  0  0
 13  8  1  0  0  0  0
 14 17  2  0  0  0  0
 14 16  2  0  0  0  0
 14 15  1  0  0  0  0
 15  9  1  0  0  0  0
 18 14  1  0  0  0  0
 19 18  1  0  0  0  0
M  RAD  3   2   2   3   3   4   2
M  END
