Coordinates from ORCA-job PhN2+~HSO4-_B3LYPG-6-31G_dp-CH-Scan-d09-49-n800
 OpenBabel11261919183D

 19 18  0  0  0  0  0  0  0  0999 V2000
   -2.0152    0.0737   -0.4108 C   0  0  0  0  0  0  0  0  0  0  0  0
   -3.3517   -0.1432   -0.7199 N   0  0  0  0  0  0  0  0  0  0  0  0
   -4.4666   -0.0952   -0.8358 N   0  0  0  0  0  0  0  0  0  0  0  0
   -1.6380    1.3939   -0.1223 C   0  0  0  0  0  0  0  0  0  0  0  0
   -0.2933    1.5861    0.1944 C   0  0  0  0  0  0  0  0  0  0  0  0
    0.6001    0.5119    0.2185 C   0  0  0  0  0  0  0  0  0  0  0  0
    0.1794   -0.7930   -0.0850 C   0  0  0  0  0  0  0  0  0  0  0  0
   -1.1454   -1.0318   -0.4148 C   0  0  0  0  0  0  0  0  0  0  0  0
   -2.5275    2.3328   -0.1966 H   0  0  0  0  0  0  0  0  0  0  0  0
    0.0562    2.5870    0.4260 H   0  0  0  0  0  0  0  0  0  0  0  0
    1.6413    0.6865    0.4738 H   0  0  0  0  0  0  0  0  0  0  0  0
    0.8864   -1.6151   -0.0643 H   0  0  0  0  0  0  0  0  0  0  0  0
   -1.5081   -2.0248   -0.6567 H   0  0  0  0  0  0  0  0  0  0  0  0
   -5.0426    3.0067    0.1782 S   0  0  0  0  0  0  0  0  0  0  0  0
   -3.7498    3.3256   -0.5003 O   0  0  0  0  0  0  0  0  0  0  0  0
   -5.0901    1.5732    0.6120 O   0  0  0  0  0  0  0  0  0  0  0  0
   -5.5017    3.9566    1.1946 O   0  0  0  0  0  0  0  0  0  0  0  0
   -6.1268    3.1273   -1.0684 O   0  0  0  0  0  0  0  0  0  0  0  0
   -6.9224    3.5170   -0.6737 H   0  0  0  0  0  0  0  0  0  0  0  0
  1  4  1  0  0  0  0
  2  1  1  0  0  0  0
  3  2  1  0  0  0  0
  4  5  2  0  0  0  0
  5  6  1  0  0  0  0
  5 10  1  0  0  0  0
  6 11  1  0  0  0  0
  7 12  1  0  0  0  0
  7  6  2  0  0  0  0
  8  1  2  0  0  0  0
  8  7  1  0  0  0  0
  9  4  1  0  0  0  0
 13  8  1  0  0  0  0
 14 16  2  0  0  0  0
 14 17  1  0  0  0  0
 15 14  2  0  0  0  0
 18 19  1  0  0  0  0
 18 14  1  0  0  0  0
M  RAD  3   2   2   3   3  17   2
M  END
