Coordinates from ORCA-job PhN2+~HSO4-_B3LYPG-6-31G_dp-CH-Scan-d09-49-n800
 OpenBabel11261919183D

 19 18  0  0  0  0  0  0  0  0999 V2000
   -1.7359   -0.2519   -0.0545 C   0  0  0  0  0  0  0  0  0  0  0  0
   -3.0825   -0.5879    0.0645 N   0  0  0  0  0  0  0  0  0  0  0  0
   -4.1720   -0.8116    0.1812 N   0  0  0  0  0  0  0  0  0  0  0  0
   -1.4616    1.0761    0.3134 C   0  0  0  0  0  0  0  0  0  0  0  0
   -0.0674    1.3254    0.1670 C   0  0  0  0  0  0  0  0  0  0  0  0
    0.8505    0.3777   -0.2749 C   0  0  0  0  0  0  0  0  0  0  0  0
    0.4537   -0.9382   -0.6190 C   0  0  0  0  0  0  0  0  0  0  0  0
   -0.8742   -1.2862   -0.5131 C   0  0  0  0  0  0  0  0  0  0  0  0
   -3.9223    3.3120    1.1069 H   0  0  0  0  0  0  0  0  0  0  0  0
    0.3159    2.3161    0.4141 H   0  0  0  0  0  0  0  0  0  0  0  0
    1.9034    0.6406   -0.3641 H   0  0  0  0  0  0  0  0  0  0  0  0
    1.1861   -1.6623   -0.9607 H   0  0  0  0  0  0  0  0  0  0  0  0
   -1.2379   -2.2791   -0.7632 H   0  0  0  0  0  0  0  0  0  0  0  0
   -5.8032    3.1470    0.0967 S   0  0  0  0  0  0  0  0  0  0  0  0
   -4.7480    3.8298    1.1130 O   0  0  0  0  0  0  0  0  0  0  0  0
   -5.5808    1.7171    0.0571 O   0  0  0  0  0  0  0  0  0  0  0  0
   -7.0814    3.7559    0.3964 O   0  0  0  0  0  0  0  0  0  0  0  0
   -5.2917    3.7031   -1.3444 O   0  0  0  0  0  0  0  0  0  0  0  0
   -5.6663    4.5919   -1.4677 H   0  0  0  0  0  0  0  0  0  0  0  0
  1  2  1  0  0  0  0
  1  4  2  0  0  0  0
  2  3  1  0  0  0  0
  5  4  1  0  0  0  0
  5 10  1  0  0  0  0
  6  5  2  0  0  0  0
  7  8  2  0  0  0  0
  7  6  1  0  0  0  0
  8  1  1  0  0  0  0
  9 15  1  0  0  0  0
 11  6  1  0  0  0  0
 12  7  1  0  0  0  0
 13  8  1  0  0  0  0
 14 17  2  0  0  0  0
 14 15  1  0  0  0  0
 16 14  2  0  0  0  0
 18 14  1  0  0  0  0
 19 18  1  0  0  0  0
M  RAD  3   2   2   3   3   4   2
M  END
