Coordinates from ORCA-job PhN2+~HSO4-_B3LYPG-6-31G_dp-CH-Scan-d09-49-n800
 OpenBabel11261919183D

 19 18  0  0  0  0  0  0  0  0999 V2000
   -1.7288   -0.2538   -0.0537 C   0  0  0  0  0  0  0  0  0  0  0  0
   -3.0763   -0.5865    0.0665 N   0  0  0  0  0  0  0  0  0  0  0  0
   -4.1666   -0.8067    0.1822 N   0  0  0  0  0  0  0  0  0  0  0  0
   -1.4516    1.0729    0.3164 C   0  0  0  0  0  0  0  0  0  0  0  0
   -0.0568    1.3191    0.1688 C   0  0  0  0  0  0  0  0  0  0  0  0
    0.8584    0.3702   -0.2760 C   0  0  0  0  0  0  0  0  0  0  0  0
    0.4583   -0.9443   -0.6220 C   0  0  0  0  0  0  0  0  0  0  0  0
   -0.8702   -1.2895   -0.5152 C   0  0  0  0  0  0  0  0  0  0  0  0
   -3.9389    3.3310    1.1157 H   0  0  0  0  0  0  0  0  0  0  0  0
    0.3291    2.3085    0.4173 H   0  0  0  0  0  0  0  0  0  0  0  0
    1.9118    0.6309   -0.3659 H   0  0  0  0  0  0  0  0  0  0  0  0
    1.1888   -1.6693   -0.9659 H   0  0  0  0  0  0  0  0  0  0  0  0
   -1.2365   -2.2811   -0.7667 H   0  0  0  0  0  0  0  0  0  0  0  0
   -5.8133    3.1515    0.0960 S   0  0  0  0  0  0  0  0  0  0  0  0
   -4.7674    3.8438    1.1160 O   0  0  0  0  0  0  0  0  0  0  0  0
   -5.5799    1.7233    0.0603 O   0  0  0  0  0  0  0  0  0  0  0  0
   -7.0971    3.7517    0.3888 O   0  0  0  0  0  0  0  0  0  0  0  0
   -5.2991    3.7089   -1.3435 O   0  0  0  0  0  0  0  0  0  0  0  0
   -5.6795    4.5948   -1.4703 H   0  0  0  0  0  0  0  0  0  0  0  0
  1  2  1  0  0  0  0
  1  4  2  0  0  0  0
  2  3  1  0  0  0  0
  5  4  1  0  0  0  0
  5 10  1  0  0  0  0
  6  5  2  0  0  0  0
  7  8  2  0  0  0  0
  7  6  1  0  0  0  0
  8  1  1  0  0  0  0
  9 15  1  0  0  0  0
 11  6  1  0  0  0  0
 12  7  1  0  0  0  0
 13  8  1  0  0  0  0
 14 17  2  0  0  0  0
 14 15  1  0  0  0  0
 16 14  2  0  0  0  0
 18 14  1  0  0  0  0
 19 18  1  0  0  0  0
M  RAD  3   2   2   3   3   4   2
M  END
