Coordinates from ORCA-job PhN2+~HSO4-_B3LYPG-6-31G_dp-CH-Scan-d09-49-n800
 OpenBabel11261919183D

 19 18  0  0  0  0  0  0  0  0999 V2000
   -1.5640   -0.2855    0.0347 C   0  0  0  0  0  0  0  0  0  0  0  0
   -2.9219   -0.5377    0.2356 N   0  0  0  0  0  0  0  0  0  0  0  0
   -4.0140   -0.6825    0.4317 N   0  0  0  0  0  0  0  0  0  0  0  0
   -1.1767    0.9746    0.5152 C   0  0  0  0  0  0  0  0  0  0  0  0
    0.2183    1.1513    0.2794 C   0  0  0  0  0  0  0  0  0  0  0  0
    1.0307    0.2034   -0.3346 C   0  0  0  0  0  0  0  0  0  0  0  0
    0.5180   -1.0415   -0.7787 C   0  0  0  0  0  0  0  0  0  0  0  0
   -0.8187   -1.3176   -0.5988 C   0  0  0  0  0  0  0  0  0  0  0  0
   -4.4129    3.7448    1.3413 H   0  0  0  0  0  0  0  0  0  0  0  0
    0.6884    2.0841    0.5947 H   0  0  0  0  0  0  0  0  0  0  0  0
    2.0894    0.4095   -0.4854 H   0  0  0  0  0  0  0  0  0  0  0  0
    1.1709   -1.7676   -1.2525 H   0  0  0  0  0  0  0  0  0  0  0  0
   -1.2690   -2.2542   -0.9169 H   0  0  0  0  0  0  0  0  0  0  0  0
   -6.0257    3.2308    0.0299 S   0  0  0  0  0  0  0  0  0  0  0  0
   -5.2890    4.1282    1.1622 O   0  0  0  0  0  0  0  0  0  0  0  0
   -5.5441    1.8691    0.1178 O   0  0  0  0  0  0  0  0  0  0  0  0
   -7.4221    3.6044    0.0876 O   0  0  0  0  0  0  0  0  0  0  0  0
   -5.3852    3.8320   -1.3381 O   0  0  0  0  0  0  0  0  0  0  0  0
   -5.8878    4.6299   -1.5765 H   0  0  0  0  0  0  0  0  0  0  0  0
  1  2  1  0  0  0  0
  1  4  2  0  0  0  0
  2  3  1  0  0  0  0
  5  4  1  0  0  0  0
  5 10  1  0  0  0  0
  6  5  2  0  0  0  0
  7  8  2  0  0  0  0
  7  6  1  0  0  0  0
  8  1  1  0  0  0  0
 11  6  1  0  0  0  0
 12  7  1  0  0  0  0
 13  8  1  0  0  0  0
 14 17  2  0  0  0  0
 14 16  2  0  0  0  0
 14 15  1  0  0  0  0
 15  9  1  0  0  0  0
 18 14  1  0  0  0  0
 19 18  1  0  0  0  0
M  RAD  3   2   2   3   3   4   2
M  END
