Coordinates from ORCA-job PhN2+~HSO4-_B3LYPG-6-31G_dp-CH-Scan-d09-49-n800
 OpenBabel11261919183D

 19 18  0  0  0  0  0  0  0  0999 V2000
   -2.0269    0.0339   -0.4131 C   0  0  0  0  0  0  0  0  0  0  0  0
   -3.3546   -0.2262   -0.7160 N   0  0  0  0  0  0  0  0  0  0  0  0
   -4.4580   -0.2791   -0.8823 N   0  0  0  0  0  0  0  0  0  0  0  0
   -1.6988    1.3737   -0.1510 C   0  0  0  0  0  0  0  0  0  0  0  0
   -0.3546    1.5982    0.1606 C   0  0  0  0  0  0  0  0  0  0  0  0
    0.5682    0.5512    0.2019 C   0  0  0  0  0  0  0  0  0  0  0  0
    0.1852   -0.7731   -0.0754 C   0  0  0  0  0  0  0  0  0  0  0  0
   -1.1315   -1.0545   -0.3954 C   0  0  0  0  0  0  0  0  0  0  0  0
   -2.6370    2.3285   -0.2228 H   0  0  0  0  0  0  0  0  0  0  0  0
   -0.0288    2.6110    0.3768 H   0  0  0  0  0  0  0  0  0  0  0  0
    1.6048    0.7590    0.4520 H   0  0  0  0  0  0  0  0  0  0  0  0
    0.9157   -1.5740   -0.0397 H   0  0  0  0  0  0  0  0  0  0  0  0
   -1.4690   -2.0615   -0.6157 H   0  0  0  0  0  0  0  0  0  0  0  0
   -5.0185    2.9934    0.2181 S   0  0  0  0  0  0  0  0  0  0  0  0
   -3.6831    3.3269   -0.3964 O   0  0  0  0  0  0  0  0  0  0  0  0
   -5.0966    1.5513    0.5721 O   0  0  0  0  0  0  0  0  0  0  0  0
   -5.4874    3.9274    1.2442 O   0  0  0  0  0  0  0  0  0  0  0  0
   -6.0465    3.1972   -1.0648 O   0  0  0  0  0  0  0  0  0  0  0  0
   -6.7984    3.6920   -0.7041 H   0  0  0  0  0  0  0  0  0  0  0  0
  1  8  2  0  0  0  0
  1  4  1  0  0  0  0
  2  1  1  0  0  0  0
  3  2  1  0  0  0  0
  4  5  2  0  0  0  0
  5  6  1  0  0  0  0
  5 10  1  0  0  0  0
  6 11  1  0  0  0  0
  7 12  1  0  0  0  0
  7  6  2  0  0  0  0
  8  7  1  0  0  0  0
  9  4  1  0  0  0  0
 13  8  1  0  0  0  0
 14 16  2  0  0  0  0
 14 17  1  0  0  0  0
 15 14  2  0  0  0  0
 18 19  1  0  0  0  0
 18 14  1  0  0  0  0
M  RAD  3   2   2   3   3  17   2
M  END
