Coordinates from ORCA-job PhN2+~HSO4-_B3LYPG-6-31G_dp-CH-Scan-d09-49-n800
 OpenBabel11261919183D

 19 18  0  0  0  0  0  0  0  0999 V2000
   -1.6048   -0.2813   -0.0000 C   0  0  0  0  0  0  0  0  0  0  0  0
   -2.9621   -0.5544    0.1732 N   0  0  0  0  0  0  0  0  0  0  0  0
   -4.0563   -0.7185    0.3389 N   0  0  0  0  0  0  0  0  0  0  0  0
   -1.2531    1.0042    0.4398 C   0  0  0  0  0  0  0  0  0  0  0  0
    0.1442    1.1982    0.2344 C   0  0  0  0  0  0  0  0  0  0  0  0
    0.9906    0.2425   -0.3185 C   0  0  0  0  0  0  0  0  0  0  0  0
    0.5131   -1.0286   -0.7261 C   0  0  0  0  0  0  0  0  0  0  0  0
   -0.8228   -1.3227   -0.5714 C   0  0  0  0  0  0  0  0  0  0  0  0
   -4.2955    3.6591    1.3024 H   0  0  0  0  0  0  0  0  0  0  0  0
    0.5885    2.1515    0.5246 H   0  0  0  0  0  0  0  0  0  0  0  0
    2.0492    0.4628   -0.4484 H   0  0  0  0  0  0  0  0  0  0  0  0
    1.1918   -1.7602   -1.1527 H   0  0  0  0  0  0  0  0  0  0  0  0
   -1.2472   -2.2794   -0.8643 H   0  0  0  0  0  0  0  0  0  0  0  0
   -5.9766    3.2157    0.0520 S   0  0  0  0  0  0  0  0  0  0  0  0
   -5.1674    4.0694    1.1674 O   0  0  0  0  0  0  0  0  0  0  0  0
   -5.5452    1.8354    0.1044 O   0  0  0  0  0  0  0  0  0  0  0  0
   -7.3550    3.6401    0.1650 O   0  0  0  0  0  0  0  0  0  0  0  0
   -5.3636    3.8108   -1.3314 O   0  0  0  0  0  0  0  0  0  0  0  0
   -5.8434    4.6306   -1.5406 H   0  0  0  0  0  0  0  0  0  0  0  0
  1  2  1  0  0  0  0
  1  4  2  0  0  0  0
  2  3  1  0  0  0  0
  5  4  1  0  0  0  0
  5 10  1  0  0  0  0
  6  5  2  0  0  0  0
  7  8  2  0  0  0  0
  7  6  1  0  0  0  0
  8  1  1  0  0  0  0
 11  6  1  0  0  0  0
 12  7  1  0  0  0  0
 13  8  1  0  0  0  0
 14 16  2  0  0  0  0
 14 17  2  0  0  0  0
 14 15  1  0  0  0  0
 15  9  1  0  0  0  0
 18 14  1  0  0  0  0
 19 18  1  0  0  0  0
M  RAD  3   2   2   3   3   4   2
M  END
