Coordinates from ORCA-job PhN2+~HSO4-_B3LYPG-6-31G_dp-CH-Scan-d09-49-n800
 OpenBabel11261919183D

 19 18  0  0  0  0  0  0  0  0999 V2000
   -1.7877   -0.2372   -0.0512 C   0  0  0  0  0  0  0  0  0  0  0  0
   -3.1268   -0.5983    0.0677 N   0  0  0  0  0  0  0  0  0  0  0  0
   -4.2107   -0.8473    0.1820 N   0  0  0  0  0  0  0  0  0  0  0  0
   -1.5331    1.0991    0.3024 C   0  0  0  0  0  0  0  0  0  0  0  0
   -0.1439    1.3708    0.1562 C   0  0  0  0  0  0  0  0  0  0  0  0
    0.7905    0.4335   -0.2739 C   0  0  0  0  0  0  0  0  0  0  0  0
    0.4158   -0.8919   -0.6043 C   0  0  0  0  0  0  0  0  0  0  0  0
   -0.9064   -1.2606   -0.4969 C   0  0  0  0  0  0  0  0  0  0  0  0
   -3.8138    3.1794    1.0570 H   0  0  0  0  0  0  0  0  0  0  0  0
    0.2217    2.3703    0.3933 H   0  0  0  0  0  0  0  0  0  0  0  0
    1.8389    0.7129   -0.3638 H   0  0  0  0  0  0  0  0  0  0  0  0
    1.1604   -1.6075   -0.9372 H   0  0  0  0  0  0  0  0  0  0  0  0
   -1.2528   -2.2619   -0.7374 H   0  0  0  0  0  0  0  0  0  0  0  0
   -5.7262    3.1105    0.0964 S   0  0  0  0  0  0  0  0  0  0  0  0
   -4.6211    3.7266    1.0980 O   0  0  0  0  0  0  0  0  0  0  0  0
   -5.5760    1.6717    0.0300 O   0  0  0  0  0  0  0  0  0  0  0  0
   -6.9688    3.7735    0.4304 O   0  0  0  0  0  0  0  0  0  0  0  0
   -5.2202    3.6624   -1.3489 O   0  0  0  0  0  0  0  0  0  0  0  0
   -5.5555    4.5694   -1.4512 H   0  0  0  0  0  0  0  0  0  0  0  0
  1  2  1  0  0  0  0
  1  4  2  0  0  0  0
  2  3  1  0  0  0  0
  5  4  1  0  0  0  0
  5 10  1  0  0  0  0
  6  5  2  0  0  0  0
  7  8  2  0  0  0  0
  7  6  1  0  0  0  0
  8  1  1  0  0  0  0
  9 15  1  0  0  0  0
 11  6  1  0  0  0  0
 12  7  1  0  0  0  0
 13  8  1  0  0  0  0
 14 17  2  0  0  0  0
 14 15  1  0  0  0  0
 16 14  2  0  0  0  0
 18 14  1  0  0  0  0
 19 18  1  0  0  0  0
M  RAD  3   2   2   3   3   4   2
M  END
