Coordinates from ORCA-job PhN2+~HSO4-_B3LYPG-6-31G_dp-CH-Scan-d09-49-n800
 OpenBabel11261919183D

 19 18  0  0  0  0  0  0  0  0999 V2000
   -1.8399   -0.2201   -0.0528 C   0  0  0  0  0  0  0  0  0  0  0  0
   -3.1722   -0.6040    0.0604 N   0  0  0  0  0  0  0  0  0  0  0  0
   -4.2507   -0.8764    0.1684 N   0  0  0  0  0  0  0  0  0  0  0  0
   -1.6042    1.1243    0.2844 C   0  0  0  0  0  0  0  0  0  0  0  0
   -0.2197    1.4167    0.1443 C   0  0  0  0  0  0  0  0  0  0  0  0
    0.7316    0.4880   -0.2672 C   0  0  0  0  0  0  0  0  0  0  0  0
    0.3790   -0.8464   -0.5828 C   0  0  0  0  0  0  0  0  0  0  0  0
   -0.9384   -1.2337   -0.4792 C   0  0  0  0  0  0  0  0  0  0  0  0
   -3.6977    3.0394    0.9849 H   0  0  0  0  0  0  0  0  0  0  0  0
    0.1278    2.4246    0.3711 H   0  0  0  0  0  0  0  0  0  0  0  0
    1.7761    0.7824   -0.3534 H   0  0  0  0  0  0  0  0  0  0  0  0
    1.1362   -1.5551   -0.9018 H   0  0  0  0  0  0  0  0  0  0  0  0
   -1.2676   -2.2432   -0.7095 H   0  0  0  0  0  0  0  0  0  0  0  0
   -5.6478    3.0741    0.1022 S   0  0  0  0  0  0  0  0  0  0  0  0
   -4.4831    3.6171    1.0719 O   0  0  0  0  0  0  0  0  0  0  0  0
   -5.5772    1.6299    0.0080 O   0  0  0  0  0  0  0  0  0  0  0  0
   -6.8454    3.7920    0.4853 O   0  0  0  0  0  0  0  0  0  0  0  0
   -5.1648    3.6209   -1.3540 O   0  0  0  0  0  0  0  0  0  0  0  0
   -5.4575    4.5448   -1.4314 H   0  0  0  0  0  0  0  0  0  0  0  0
  1  2  1  0  0  0  0
  1  4  2  0  0  0  0
  2  3  1  0  0  0  0
  5  4  1  0  0  0  0
  5 10  1  0  0  0  0
  6  5  2  0  0  0  0
  7  8  2  0  0  0  0
  7  6  1  0  0  0  0
  8  1  1  0  0  0  0
  9 15  1  0  0  0  0
 11  6  1  0  0  0  0
 12  7  1  0  0  0  0
 13  8  1  0  0  0  0
 14 17  2  0  0  0  0
 14 15  1  0  0  0  0
 16 14  2  0  0  0  0
 18 14  1  0  0  0  0
 19 18  1  0  0  0  0
M  RAD  3   2   2   3   3   4   2
M  END
