Coordinates from ORCA-job PhN2+~HSO4-_B3LYPG-6-31G_dp-CH-Scan-d09-49-n800
 OpenBabel11261919183D

 19 18  0  0  0  0  0  0  0  0999 V2000
   -2.0560   -0.0785   -0.2562 C   0  0  0  0  0  0  0  0  0  0  0  0
   -3.3774   -0.4837   -0.3770 N   0  0  0  0  0  0  0  0  0  0  0  0
   -4.4482   -0.7828   -0.4693 N   0  0  0  0  0  0  0  0  0  0  0  0
   -1.8526    1.2869    0.0192 C   0  0  0  0  0  0  0  0  0  0  0  0
   -0.4739    1.5851    0.1203 C   0  0  0  0  0  0  0  0  0  0  0  0
    0.5316    0.6340   -0.0361 C   0  0  0  0  0  0  0  0  0  0  0  0
    0.2306   -0.7169   -0.3136 C   0  0  0  0  0  0  0  0  0  0  0  0
   -1.0878   -1.1018   -0.4305 C   0  0  0  0  0  0  0  0  0  0  0  0
   -3.0471    2.5286    0.2691 H   0  0  0  0  0  0  0  0  0  0  0  0
   -0.1798    2.6106    0.3345 H   0  0  0  0  0  0  0  0  0  0  0  0
    1.5744    0.9291    0.0562 H   0  0  0  0  0  0  0  0  0  0  0  0
    1.0250   -1.4457   -0.4340 H   0  0  0  0  0  0  0  0  0  0  0  0
   -1.3747   -2.1271   -0.6441 H   0  0  0  0  0  0  0  0  0  0  0  0
   -5.2055    2.9728    0.3299 S   0  0  0  0  0  0  0  0  0  0  0  0
   -3.6923    3.3542    0.4722 O   0  0  0  0  0  0  0  0  0  0  0  0
   -5.3918    1.5413    0.5365 O   0  0  0  0  0  0  0  0  0  0  0  0
   -6.0039    3.9549    1.0436 O   0  0  0  0  0  0  0  0  0  0  0  0
   -5.4901    3.1868   -1.2737 O   0  0  0  0  0  0  0  0  0  0  0  0
   -5.6960    4.1276   -1.3982 H   0  0  0  0  0  0  0  0  0  0  0  0
  1  4  2  0  0  0  0
  2  1  1  0  0  0  0
  3  2  1  0  0  0  0
  4  5  1  0  0  0  0
  5 10  1  0  0  0  0
  6 11  1  0  0  0  0
  6  5  2  0  0  0  0
  7  6  1  0  0  0  0
  8  7  2  0  0  0  0
  8  1  1  0  0  0  0
  9 15  1  0  0  0  0
 12  7  1  0  0  0  0
 13  8  1  0  0  0  0
 14 15  1  0  0  0  0
 14 16  2  0  0  0  0
 14 17  2  0  0  0  0
 18 14  1  0  0  0  0
 19 18  1  0  0  0  0
M  RAD  3   2   2   3   3   4   2
M  END
