Coordinates from ORCA-job PhN2+~HSO4-_B3LYPG-6-31G_dp-CH-Scan-d09-49-n800
 OpenBabel11261919183D

 19 18  0  0  0  0  0  0  0  0999 V2000
   -1.6861   -0.2648   -0.0469 C   0  0  0  0  0  0  0  0  0  0  0  0
   -3.0386   -0.5766    0.0822 N   0  0  0  0  0  0  0  0  0  0  0  0
   -4.1317   -0.7763    0.2101 N   0  0  0  0  0  0  0  0  0  0  0  0
   -1.3879    1.0511    0.3427 C   0  0  0  0  0  0  0  0  0  0  0  0
    0.0098    1.2786    0.1858 C   0  0  0  0  0  0  0  0  0  0  0  0
    0.9065    0.3238   -0.2833 C   0  0  0  0  0  0  0  0  0  0  0  0
    0.4837   -0.9790   -0.6474 C   0  0  0  0  0  0  0  0  0  0  0  0
   -0.8487   -1.3062   -0.5337 C   0  0  0  0  0  0  0  0  0  0  0  0
   -4.0469    3.4533    1.1735 H   0  0  0  0  0  0  0  0  0  0  0  0
    0.4132    2.2579    0.4468 H   0  0  0  0  0  0  0  0  0  0  0  0
    1.9629    0.5702   -0.3791 H   0  0  0  0  0  0  0  0  0  0  0  0
    1.2003   -1.7088   -1.0099 H   0  0  0  0  0  0  0  0  0  0  0  0
   -1.2323   -2.2881   -0.7978 H   0  0  0  0  0  0  0  0  0  0  0  0
   -5.8726    3.1774    0.0890 S   0  0  0  0  0  0  0  0  0  0  0  0
   -4.8935    3.9328    1.1330 O   0  0  0  0  0  0  0  0  0  0  0  0
   -5.5681    1.7624    0.0824 O   0  0  0  0  0  0  0  0  0  0  0  0
   -7.1918    3.7194    0.3330 O   0  0  0  0  0  0  0  0  0  0  0  0
   -5.3380    3.7417   -1.3399 O   0  0  0  0  0  0  0  0  0  0  0  0
   -5.7558    4.6066   -1.4918 H   0  0  0  0  0  0  0  0  0  0  0  0
  1  2  1  0  0  0  0
  1  4  2  0  0  0  0
  2  3  1  0  0  0  0
  5  4  1  0  0  0  0
  5 10  1  0  0  0  0
  6  5  2  0  0  0  0
  7  8  2  0  0  0  0
  7  6  1  0  0  0  0
  8  1  1  0  0  0  0
 11  6  1  0  0  0  0
 12  7  1  0  0  0  0
 13  8  1  0  0  0  0
 14 17  2  0  0  0  0
 14 15  1  0  0  0  0
 15  9  1  0  0  0  0
 16 14  2  0  0  0  0
 18 14  1  0  0  0  0
 19 18  1  0  0  0  0
M  RAD  3   2   2   3   3   4   2
M  END
