Coordinates from ORCA-job PhN2+~HSO4-_B3LYPG-6-31G_dp-CH-Scan-d09-49-n800
 OpenBabel11261919183D

 19 18  0  0  0  0  0  0  0  0999 V2000
   -1.7454   -0.2743    0.8382 C   0  0  0  0  0  0  0  0  0  0  0  0
   -2.8577   -0.9295    1.3751 N   0  0  0  0  0  0  0  0  0  0  0  0
   -3.6991   -1.4701    1.8747 N   0  0  0  0  0  0  0  0  0  0  0  0
   -0.6285   -0.3580    1.6808 C   0  0  0  0  0  0  0  0  0  0  0  0
    0.4509    0.3685    1.0884 C   0  0  0  0  0  0  0  0  0  0  0  0
    0.3626    1.0475   -0.1211 C   0  0  0  0  0  0  0  0  0  0  0  0
   -0.8269    1.0351   -0.8979 C   0  0  0  0  0  0  0  0  0  0  0  0
   -1.9287    0.3516   -0.4263 C   0  0  0  0  0  0  0  0  0  0  0  0
   -3.0224    2.8452   -0.5098 H   0  0  0  0  0  0  0  0  0  0  0  0
    1.4069    0.4023    1.6127 H   0  0  0  0  0  0  0  0  0  0  0  0
    1.2238    1.5929   -0.5038 H   0  0  0  0  0  0  0  0  0  0  0  0
   -0.8537    1.5257   -1.8663 H   0  0  0  0  0  0  0  0  0  0  0  0
   -2.8559    0.2682   -0.9857 H   0  0  0  0  0  0  0  0  0  0  0  0
   -5.1506    2.5717   -0.4969 S   0  0  0  0  0  0  0  0  0  0  0  0
   -3.7901    3.4409   -0.6009 O   0  0  0  0  0  0  0  0  0  0  0  0
   -4.9183    1.4176    0.3482 O   0  0  0  0  0  0  0  0  0  0  0  0
   -6.2148    3.5273   -0.2901 O   0  0  0  0  0  0  0  0  0  0  0  0
   -5.2711    1.9703   -2.0055 O   0  0  0  0  0  0  0  0  0  0  0  0
   -5.6967    2.6427   -2.5649 H   0  0  0  0  0  0  0  0  0  0  0  0
  1  2  1  0  0  0  0
  1  4  2  0  0  0  0
  2  3  1  0  0  0  0
  5 10  1  0  0  0  0
  5  4  1  0  0  0  0
  6  5  2  0  0  0  0
  7  8  2  0  0  0  0
  7  6  1  0  0  0  0
  8  1  1  0  0  0  0
 11  6  1  0  0  0  0
 12  7  1  0  0  0  0
 13  8  1  0  0  0  0
 14 17  2  0  0  0  0
 14 16  2  0  0  0  0
 15  9  1  0  0  0  0
 15 14  1  0  0  0  0
 18 14  1  0  0  0  0
 19 18  1  0  0  0  0
M  RAD  3   2   2   3   3   4   2
M  END
