Coordinates from ORCA-job PhN2+~HSO4-_B3LYPG-6-31G_dp-CH-Scan-d09-49-n800
 OpenBabel11261919183D

 19 18  0  0  0  0  0  0  0  0999 V2000
   -1.6796   -0.2666   -0.0438 C   0  0  0  0  0  0  0  0  0  0  0  0
   -3.0327   -0.5750    0.0884 N   0  0  0  0  0  0  0  0  0  0  0  0
   -4.1260   -0.7715    0.2192 N   0  0  0  0  0  0  0  0  0  0  0  0
   -1.3774    1.0470    0.3508 C   0  0  0  0  0  0  0  0  0  0  0  0
    0.0204    1.2716    0.1904 C   0  0  0  0  0  0  0  0  0  0  0  0
    0.9134    0.3168   -0.2858 C   0  0  0  0  0  0  0  0  0  0  0  0
    0.4863   -0.9834   -0.6542 C   0  0  0  0  0  0  0  0  0  0  0  0
   -0.8465   -1.3080   -0.5377 C   0  0  0  0  0  0  0  0  0  0  0  0
   -4.0668    3.4755    1.1858 H   0  0  0  0  0  0  0  0  0  0  0  0
    0.4271    2.2488    0.4543 H   0  0  0  0  0  0  0  0  0  0  0  0
    1.9701    0.5611   -0.3838 H   0  0  0  0  0  0  0  0  0  0  0  0
    1.2001   -1.7133   -1.0221 H   0  0  0  0  0  0  0  0  0  0  0  0
   -1.2333   -2.2877   -0.8048 H   0  0  0  0  0  0  0  0  0  0  0  0
   -5.8806    3.1805    0.0867 S   0  0  0  0  0  0  0  0  0  0  0  0
   -4.9165    3.9479    1.1364 O   0  0  0  0  0  0  0  0  0  0  0  0
   -5.5629    1.7685    0.0871 O   0  0  0  0  0  0  0  0  0  0  0  0
   -7.2064    3.7114    0.3187 O   0  0  0  0  0  0  0  0  0  0  0  0
   -5.3397    3.7457   -1.3394 O   0  0  0  0  0  0  0  0  0  0  0  0
   -5.7645    4.6061   -1.4974 H   0  0  0  0  0  0  0  0  0  0  0  0
  1  2  1  0  0  0  0
  1  4  2  0  0  0  0
  2  3  1  0  0  0  0
  5  4  1  0  0  0  0
  5 10  1  0  0  0  0
  6  5  2  0  0  0  0
  7  8  2  0  0  0  0
  7  6  1  0  0  0  0
  8  1  1  0  0  0  0
 11  6  1  0  0  0  0
 12  7  1  0  0  0  0
 13  8  1  0  0  0  0
 14 16  2  0  0  0  0
 14 17  2  0  0  0  0
 14 15  1  0  0  0  0
 15  9  1  0  0  0  0
 18 14  1  0  0  0  0
 19 18  1  0  0  0  0
M  RAD  3   2   2   3   3   4   2
M  END
