Coordinates from ORCA-job PhN2+~HSO4-_B3LYPG-6-31G_dp-CH-Scan-d09-49-n800
 OpenBabel11261919183D

 19 18  0  0  0  0  0  0  0  0999 V2000
   -1.8281   -0.2238   -0.0510 C   0  0  0  0  0  0  0  0  0  0  0  0
   -3.1618   -0.6027    0.0648 N   0  0  0  0  0  0  0  0  0  0  0  0
   -4.2416   -0.8700    0.1745 N   0  0  0  0  0  0  0  0  0  0  0  0
   -1.5879    1.1187    0.2904 C   0  0  0  0  0  0  0  0  0  0  0  0
   -0.2024    1.4064    0.1473 C   0  0  0  0  0  0  0  0  0  0  0  0
    0.7446    0.4760   -0.2700 C   0  0  0  0  0  0  0  0  0  0  0  0
    0.3867   -0.8563   -0.5893 C   0  0  0  0  0  0  0  0  0  0  0  0
   -0.9317   -1.2395   -0.4834 C   0  0  0  0  0  0  0  0  0  0  0  0
   -3.7259    3.0716    1.0052 H   0  0  0  0  0  0  0  0  0  0  0  0
    0.1494    2.4123    0.3766 H   0  0  0  0  0  0  0  0  0  0  0  0
    1.7899    0.7671   -0.3582 H   0  0  0  0  0  0  0  0  0  0  0  0
    1.1406   -1.5664   -0.9127 H   0  0  0  0  0  0  0  0  0  0  0  0
   -1.2650   -2.2470   -0.7161 H   0  0  0  0  0  0  0  0  0  0  0  0
   -5.6655    3.0817    0.0996 S   0  0  0  0  0  0  0  0  0  0  0  0
   -4.5168    3.6419    1.0801 O   0  0  0  0  0  0  0  0  0  0  0  0
   -5.5759    1.6384    0.0116 O   0  0  0  0  0  0  0  0  0  0  0  0
   -6.8750    3.7869    0.4684 O   0  0  0  0  0  0  0  0  0  0  0  0
   -5.1733    3.6300   -1.3527 O   0  0  0  0  0  0  0  0  0  0  0  0
   -5.4759    4.5502   -1.4363 H   0  0  0  0  0  0  0  0  0  0  0  0
  1  2  1  0  0  0  0
  1  4  2  0  0  0  0
  2  3  1  0  0  0  0
  5  4  1  0  0  0  0
  5 10  1  0  0  0  0
  6  5  2  0  0  0  0
  7  8  2  0  0  0  0
  7  6  1  0  0  0  0
  8  1  1  0  0  0  0
  9 15  1  0  0  0  0
 11  6  1  0  0  0  0
 12  7  1  0  0  0  0
 13  8  1  0  0  0  0
 14 17  2  0  0  0  0
 14 15  1  0  0  0  0
 16 14  2  0  0  0  0
 18 14  1  0  0  0  0
 19 18  1  0  0  0  0
M  RAD  3   2   2   3   3   4   2
M  END
