Coordinates from ORCA-job PhN2+~HSO4-_B3LYPG-6-31G_dp-CH-Scan-d09-49-n800
 OpenBabel11261919183D

 19 18  0  0  0  0  0  0  0  0999 V2000
   -1.5881   -0.2835    0.0130 C   0  0  0  0  0  0  0  0  0  0  0  0
   -2.9458   -0.5481    0.1969 N   0  0  0  0  0  0  0  0  0  0  0  0
   -4.0394   -0.7042    0.3747 N   0  0  0  0  0  0  0  0  0  0  0  0
   -1.2228    0.9927    0.4682 C   0  0  0  0  0  0  0  0  0  0  0  0
    0.1738    1.1797    0.2512 C   0  0  0  0  0  0  0  0  0  0  0  0
    1.0073    0.2264   -0.3250 C   0  0  0  0  0  0  0  0  0  0  0  0
    0.5163   -1.0350   -0.7463 C   0  0  0  0  0  0  0  0  0  0  0  0
   -0.8201   -1.3219   -0.5819 C   0  0  0  0  0  0  0  0  0  0  0  0
   -4.3435    3.6937    1.3197 H   0  0  0  0  0  0  0  0  0  0  0  0
    0.6280    2.1255    0.5509 H   0  0  0  0  0  0  0  0  0  0  0  0
    2.0660    0.4411   -0.4628 H   0  0  0  0  0  0  0  0  0  0  0  0
    1.1852   -1.7649   -1.1908 H   0  0  0  0  0  0  0  0  0  0  0  0
   -1.2544   -2.2712   -0.8844 H   0  0  0  0  0  0  0  0  0  0  0  0
   -5.9972    3.2227    0.0434 S   0  0  0  0  0  0  0  0  0  0  0  0
   -5.2171    4.0937    1.1665 O   0  0  0  0  0  0  0  0  0  0  0  0
   -5.5452    1.8496    0.1095 O   0  0  0  0  0  0  0  0  0  0  0  0
   -7.3833    3.6267    0.1340 O   0  0  0  0  0  0  0  0  0  0  0  0
   -5.3728    3.8207   -1.3336 O   0  0  0  0  0  0  0  0  0  0  0  0
   -5.8622    4.6317   -1.5543 H   0  0  0  0  0  0  0  0  0  0  0  0
  1  2  1  0  0  0  0
  1  4  2  0  0  0  0
  2  3  1  0  0  0  0
  5  4  1  0  0  0  0
  5 10  1  0  0  0  0
  6  5  2  0  0  0  0
  7  8  2  0  0  0  0
  7  6  1  0  0  0  0
  8  1  1  0  0  0  0
 11  6  1  0  0  0  0
 12  7  1  0  0  0  0
 13  8  1  0  0  0  0
 14 16  2  0  0  0  0
 14 17  2  0  0  0  0
 14 15  1  0  0  0  0
 15  9  1  0  0  0  0
 18 14  1  0  0  0  0
 19 18  1  0  0  0  0
M  RAD  3   2   2   3   3   4   2
M  END
