Coordinates from ORCA-job PhN2+~HSO4-_B3LYPG-6-31G_dp-CH-Scan-d09-49-n800
 OpenBabel11261919183D

 19 18  0  0  0  0  0  0  0  0999 V2000
   -2.0603   -0.1587    0.0117 C   0  0  0  0  0  0  0  0  0  0  0  0
   -3.3530   -0.6378    0.1662 N   0  0  0  0  0  0  0  0  0  0  0  0
   -4.4015   -0.9944    0.3008 N   0  0  0  0  0  0  0  0  0  0  0  0
   -1.8934    1.2181    0.2528 C   0  0  0  0  0  0  0  0  0  0  0  0
   -0.5423    1.6007    0.0785 C   0  0  0  0  0  0  0  0  0  0  0  0
    0.4671    0.7120   -0.2839 C   0  0  0  0  0  0  0  0  0  0  0  0
    0.2005   -0.6571   -0.5058 C   0  0  0  0  0  0  0  0  0  0  0  0
   -1.0879   -1.1243   -0.3588 C   0  0  0  0  0  0  0  0  0  0  0  0
   -3.2340    2.3903    0.6796 H   0  0  0  0  0  0  0  0  0  0  0  0
   -0.2728    2.6434    0.2354 H   0  0  0  0  0  0  0  0  0  0  0  0
    1.4871    1.0707   -0.4021 H   0  0  0  0  0  0  0  0  0  0  0  0
    0.9987   -1.3351   -0.7887 H   0  0  0  0  0  0  0  0  0  0  0  0
   -1.3484   -2.1661   -0.5193 H   0  0  0  0  0  0  0  0  0  0  0  0
   -5.2560    2.8893    0.0251 S   0  0  0  0  0  0  0  0  0  0  0  0
   -3.9806    3.0789    0.9286 O   0  0  0  0  0  0  0  0  0  0  0  0
   -5.3650    1.5032   -0.4099 O   0  0  0  0  0  0  0  0  0  0  0  0
   -6.3645    3.5837    0.6570 O   0  0  0  0  0  0  0  0  0  0  0  0
   -4.8730    3.7181   -1.3357 O   0  0  0  0  0  0  0  0  0  0  0  0
   -5.1364    4.6406   -1.1830 H   0  0  0  0  0  0  0  0  0  0  0  0
  1  2  1  0  0  0  0
  1  4  2  0  0  0  0
  2  3  1  0  0  0  0
  5 10  1  0  0  0  0
  5  4  1  0  0  0  0
  6  5  2  0  0  0  0
  7  8  2  0  0  0  0
  7  6  1  0  0  0  0
  8  1  1  0  0  0  0
  9 15  1  0  0  0  0
 11  6  1  0  0  0  0
 12  7  1  0  0  0  0
 13  8  1  0  0  0  0
 14 17  2  0  0  0  0
 14 15  1  0  0  0  0
 16 14  2  0  0  0  0
 18 19  1  0  0  0  0
 18 14  1  0  0  0  0
M  RAD  3   2   2   3   3   4   2
M  END
