Coordinates from ORCA-job PhN2+~HSO4-_B3LYPG-6-31G_dp-CH-Scan-d09-49-n800
 OpenBabel11261919183D

 19 18  0  0  0  0  0  0  0  0999 V2000
   -1.5566   -0.2858    0.0426 C   0  0  0  0  0  0  0  0  0  0  0  0
   -2.9144   -0.5344    0.2495 N   0  0  0  0  0  0  0  0  0  0  0  0
   -4.0056   -0.6760    0.4527 N   0  0  0  0  0  0  0  0  0  0  0  0
   -1.1616    0.9680    0.5327 C   0  0  0  0  0  0  0  0  0  0  0  0
    0.2327    1.1415    0.2903 C   0  0  0  0  0  0  0  0  0  0  0  0
    1.0376    0.1964   -0.3377 C   0  0  0  0  0  0  0  0  0  0  0  0
    0.5173   -1.0422   -0.7905 C   0  0  0  0  0  0  0  0  0  0  0  0
   -0.8193   -1.3148   -0.6051 C   0  0  0  0  0  0  0  0  0  0  0  0
   -4.4342    3.7619    1.3467 H   0  0  0  0  0  0  0  0  0  0  0  0
    0.7085    2.0694    0.6118 H   0  0  0  0  0  0  0  0  0  0  0  0
    2.0962    0.3997   -0.4928 H   0  0  0  0  0  0  0  0  0  0  0  0
    1.1645   -1.7662   -1.2752 H   0  0  0  0  0  0  0  0  0  0  0  0
   -1.2753   -2.2466   -0.9294 H   0  0  0  0  0  0  0  0  0  0  0  0
   -6.0340    3.2328    0.0254 S   0  0  0  0  0  0  0  0  0  0  0  0
   -5.3111    4.1395    1.1593 O   0  0  0  0  0  0  0  0  0  0  0  0
   -5.5431    1.8749    0.1214 O   0  0  0  0  0  0  0  0  0  0  0  0
   -7.4333    3.5965    0.0726 O   0  0  0  0  0  0  0  0  0  0  0  0
   -5.3887    3.8337   -1.3404 O   0  0  0  0  0  0  0  0  0  0  0  0
   -5.8953    4.6272   -1.5850 H   0  0  0  0  0  0  0  0  0  0  0  0
  1  2  1  0  0  0  0
  1  4  2  0  0  0  0
  2  3  1  0  0  0  0
  5  4  1  0  0  0  0
  5 10  1  0  0  0  0
  6  5  2  0  0  0  0
  7  8  2  0  0  0  0
  7  6  1  0  0  0  0
  8  1  1  0  0  0  0
 11  6  1  0  0  0  0
 12  7  1  0  0  0  0
 13  8  1  0  0  0  0
 14 17  2  0  0  0  0
 14 16  2  0  0  0  0
 14 15  1  0  0  0  0
 15  9  1  0  0  0  0
 18 14  1  0  0  0  0
 19 18  1  0  0  0  0
M  RAD  3   2   2   3   3   4   2
M  END
