Coordinates from ORCA-job PhN2+~HSO4-_B3LYPG-6-31G_dp-CH-Scan-d09-49-n800
 OpenBabel11261919183D

 19 18  0  0  0  0  0  0  0  0999 V2000
   -2.0163    0.1296   -0.4261 C   0  0  0  0  0  0  0  0  0  0  0  0
   -3.3550   -0.0491   -0.7646 N   0  0  0  0  0  0  0  0  0  0  0  0
   -4.4722    0.0982   -0.8219 N   0  0  0  0  0  0  0  0  0  0  0  0
   -1.5909    1.4236   -0.0912 C   0  0  0  0  0  0  0  0  0  0  0  0
   -0.2477    1.5718    0.2455 C   0  0  0  0  0  0  0  0  0  0  0  0
    0.6132    0.4702    0.2479 C   0  0  0  0  0  0  0  0  0  0  0  0
    0.1548   -0.8078   -0.1020 C   0  0  0  0  0  0  0  0  0  0  0  0
   -1.1738   -0.9933   -0.4576 C   0  0  0  0  0  0  0  0  0  0  0  0
   -2.3874    2.3399   -0.1486 H   0  0  0  0  0  0  0  0  0  0  0  0
    0.1255    2.5557    0.5089 H   0  0  0  0  0  0  0  0  0  0  0  0
    1.6556    0.6053    0.5202 H   0  0  0  0  0  0  0  0  0  0  0  0
    0.8347   -1.6529   -0.1008 H   0  0  0  0  0  0  0  0  0  0  0  0
   -1.5618   -1.9661   -0.7384 H   0  0  0  0  0  0  0  0  0  0  0  0
   -5.0410    3.0269    0.1331 S   0  0  0  0  0  0  0  0  0  0  0  0
   -3.8219    3.3495   -0.6447 O   0  0  0  0  0  0  0  0  0  0  0  0
   -4.9918    1.6120    0.6651 O   0  0  0  0  0  0  0  0  0  0  0  0
   -5.4891    3.9922    1.1393 O   0  0  0  0  0  0  0  0  0  0  0  0
   -6.2161    3.0035   -1.0329 O   0  0  0  0  0  0  0  0  0  0  0  0
   -7.0341    3.2662   -0.5824 H   0  0  0  0  0  0  0  0  0  0  0  0
  1  4  1  0  0  0  0
  2  1  1  0  0  0  0
  3  2  1  0  0  0  0
  4  5  2  0  0  0  0
  5  6  1  0  0  0  0
  5 10  1  0  0  0  0
  6 11  1  0  0  0  0
  7 12  1  0  0  0  0
  7  6  2  0  0  0  0
  8  1  2  0  0  0  0
  8  7  1  0  0  0  0
  9  4  1  0  0  0  0
 13  8  1  0  0  0  0
 14 16  2  0  0  0  0
 14 17  1  0  0  0  0
 15 14  2  0  0  0  0
 18 19  1  0  0  0  0
 18 14  1  0  0  0  0
M  RAD  3   2   2   3   3  17   2
M  END
