Coordinates from ORCA-job PhN2+~HSO4-_B3LYPG-6-31G_dp-CH-Scan-d09-49-n800
 OpenBabel11261919183D

 19 18  0  0  0  0  0  0  0  0999 V2000
   -1.8916   -0.2041   -0.0589 C   0  0  0  0  0  0  0  0  0  0  0  0
   -3.2170   -0.6103    0.0448 N   0  0  0  0  0  0  0  0  0  0  0  0
   -4.2904   -0.9042    0.1437 N   0  0  0  0  0  0  0  0  0  0  0  0
   -1.6761    1.1496    0.2554 C   0  0  0  0  0  0  0  0  0  0  0  0
   -0.2963    1.4625    0.1270 C   0  0  0  0  0  0  0  0  0  0  0  0
    0.6740    0.5409   -0.2559 C   0  0  0  0  0  0  0  0  0  0  0  0
    0.3450   -0.8035   -0.5511 C   0  0  0  0  0  0  0  0  0  0  0  0
   -0.9677   -1.2092   -0.4559 C   0  0  0  0  0  0  0  0  0  0  0  0
   -3.5762    2.8887    0.8872 H   0  0  0  0  0  0  0  0  0  0  0  0
    0.0315    2.4795    0.3397 H   0  0  0  0  0  0  0  0  0  0  0  0
    1.7147    0.8499   -0.3345 H   0  0  0  0  0  0  0  0  0  0  0  0
    1.1162   -1.5064   -0.8484 H   0  0  0  0  0  0  0  0  0  0  0  0
   -1.2782   -2.2275   -0.6720 H   0  0  0  0  0  0  0  0  0  0  0  0
   -5.5674    3.0394    0.1107 S   0  0  0  0  0  0  0  0  0  0  0  0
   -4.3353    3.4978    1.0307 O   0  0  0  0  0  0  0  0  0  0  0  0
   -5.5776    1.5958   -0.0236 O   0  0  0  0  0  0  0  0  0  0  0  0
   -6.7113    3.8028    0.5655 O   0  0  0  0  0  0  0  0  0  0  0  0
   -5.1311    3.5976   -1.3576 O   0  0  0  0  0  0  0  0  0  0  0  0
   -5.3808    4.5362   -1.3980 H   0  0  0  0  0  0  0  0  0  0  0  0
  1  2  1  0  0  0  0
  1  4  2  0  0  0  0
  2  3  1  0  0  0  0
  5  4  1  0  0  0  0
  5 10  1  0  0  0  0
  6  5  2  0  0  0  0
  7  8  2  0  0  0  0
  7  6  1  0  0  0  0
  8  1  1  0  0  0  0
  9 15  1  0  0  0  0
 11  6  1  0  0  0  0
 12  7  1  0  0  0  0
 13  8  1  0  0  0  0
 14 17  2  0  0  0  0
 14 15  1  0  0  0  0
 16 14  2  0  0  0  0
 18 14  1  0  0  0  0
 19 18  1  0  0  0  0
M  RAD  3   2   2   3   3   4   2
M  END
