Coordinates from ORCA-job PhN2+~HSO4-_B3LYPG-6-31G_dp-CH-Scan-d09-49-n800
 OpenBabel11261919183D

 19 18  0  0  0  0  0  0  0  0999 V2000
   -1.6988   -0.2372    0.8537 C   0  0  0  0  0  0  0  0  0  0  0  0
   -2.8451   -0.8277    1.3934 N   0  0  0  0  0  0  0  0  0  0  0  0
   -3.7139   -1.3218    1.8949 N   0  0  0  0  0  0  0  0  0  0  0  0
   -0.5833   -0.4015    1.6866 C   0  0  0  0  0  0  0  0  0  0  0  0
    0.5385    0.2493    1.0876 C   0  0  0  0  0  0  0  0  0  0  0  0
    0.4885    0.9318   -0.1225 C   0  0  0  0  0  0  0  0  0  0  0  0
   -0.7063    1.0105   -0.8853 C   0  0  0  0  0  0  0  0  0  0  0  0
   -1.8501    0.4096   -0.4042 C   0  0  0  0  0  0  0  0  0  0  0  0
   -3.2074    3.0726   -0.4616 H   0  0  0  0  0  0  0  0  0  0  0  0
    1.4987    0.2167    1.6046 H   0  0  0  0  0  0  0  0  0  0  0  0
    1.3838    1.4126   -0.5138 H   0  0  0  0  0  0  0  0  0  0  0  0
   -0.7095    1.5140   -1.8472 H   0  0  0  0  0  0  0  0  0  0  0  0
   -2.7890    0.4019   -0.9502 H   0  0  0  0  0  0  0  0  0  0  0  0
   -5.2872    2.5548   -0.5281 S   0  0  0  0  0  0  0  0  0  0  0  0
   -4.0326    3.5789   -0.5705 O   0  0  0  0  0  0  0  0  0  0  0  0
   -4.9356    1.4086    0.2860 O   0  0  0  0  0  0  0  0  0  0  0  0
   -6.4582    3.3739   -0.3151 O   0  0  0  0  0  0  0  0  0  0  0  0
   -5.3062    1.9974   -2.0563 O   0  0  0  0  0  0  0  0  0  0  0  0
   -5.8020    2.6308   -2.6035 H   0  0  0  0  0  0  0  0  0  0  0  0
  1  2  1  0  0  0  0
  1  4  2  0  0  0  0
  2  3  1  0  0  0  0
  5 10  1  0  0  0  0
  5  4  1  0  0  0  0
  6  5  2  0  0  0  0
  7  8  2  0  0  0  0
  7  6  1  0  0  0  0
  8  1  1  0  0  0  0
 11  6  1  0  0  0  0
 12  7  1  0  0  0  0
 13  8  1  0  0  0  0
 14 17  2  0  0  0  0
 14 16  2  0  0  0  0
 15 14  1  0  0  0  0
 15  9  1  0  0  0  0
 18 14  1  0  0  0  0
 19 18  1  0  0  0  0
M  RAD  3   2   2   3   3   4   2
M  END
