Coordinates from ORCA-job PhN2+~HSO4-_B3LYPG-6-31G_dp-CH-Scan-d09-49-n800
 OpenBabel11261919183D

 19 18  0  0  0  0  0  0  0  0999 V2000
   -1.8215   -0.2262   -0.0500 C   0  0  0  0  0  0  0  0  0  0  0  0
   -3.1560   -0.6024    0.0670 N   0  0  0  0  0  0  0  0  0  0  0  0
   -4.2364   -0.8665    0.1780 N   0  0  0  0  0  0  0  0  0  0  0  0
   -1.5788    1.1150    0.2945 C   0  0  0  0  0  0  0  0  0  0  0  0
   -0.1928    1.4002    0.1499 C   0  0  0  0  0  0  0  0  0  0  0  0
    0.7519    0.4691   -0.2713 C   0  0  0  0  0  0  0  0  0  0  0  0
    0.3910   -0.8618   -0.5933 C   0  0  0  0  0  0  0  0  0  0  0  0
   -0.9279   -1.2428   -0.4864 C   0  0  0  0  0  0  0  0  0  0  0  0
   -3.7414    3.0917    1.0168 H   0  0  0  0  0  0  0  0  0  0  0  0
    0.1615    2.4048    0.3810 H   0  0  0  0  0  0  0  0  0  0  0  0
    1.7976    0.7584   -0.3605 H   0  0  0  0  0  0  0  0  0  0  0  0
    1.1432   -1.5725   -0.9197 H   0  0  0  0  0  0  0  0  0  0  0  0
   -1.2636   -2.2491   -0.7210 H   0  0  0  0  0  0  0  0  0  0  0  0
   -5.6752    3.0862    0.0983 S   0  0  0  0  0  0  0  0  0  0  0  0
   -4.5357    3.6576    1.0842 O   0  0  0  0  0  0  0  0  0  0  0  0
   -5.5739    1.6435    0.0153 O   0  0  0  0  0  0  0  0  0  0  0  0
   -6.8915    3.7837    0.4587 O   0  0  0  0  0  0  0  0  0  0  0  0
   -5.1786    3.6344   -1.3523 O   0  0  0  0  0  0  0  0  0  0  0  0
   -5.4876    4.5521   -1.4403 H   0  0  0  0  0  0  0  0  0  0  0  0
  1  2  1  0  0  0  0
  1  4  2  0  0  0  0
  2  3  1  0  0  0  0
  5  4  1  0  0  0  0
  5 10  1  0  0  0  0
  6  5  2  0  0  0  0
  7  8  2  0  0  0  0
  7  6  1  0  0  0  0
  8  1  1  0  0  0  0
  9 15  1  0  0  0  0
 11  6  1  0  0  0  0
 12  7  1  0  0  0  0
 13  8  1  0  0  0  0
 14 17  2  0  0  0  0
 14 15  1  0  0  0  0
 16 14  2  0  0  0  0
 18 14  1  0  0  0  0
 19 18  1  0  0  0  0
M  RAD  3   2   2   3   3   4   2
M  END
