Coordinates from ORCA-job PhN2+~HSO4-_B3LYPG-6-31G_dp-CH-Scan-d09-49-n800
 OpenBabel11261919183D

 19 18  0  0  0  0  0  0  0  0999 V2000
   -2.0166    0.0654   -0.4107 C   0  0  0  0  0  0  0  0  0  0  0  0
   -3.3520   -0.1590   -0.7171 N   0  0  0  0  0  0  0  0  0  0  0  0
   -4.4656   -0.1271   -0.8412 N   0  0  0  0  0  0  0  0  0  0  0  0
   -1.6489    1.3894   -0.1265 C   0  0  0  0  0  0  0  0  0  0  0  0
   -0.3043    1.5882    0.1891 C   0  0  0  0  0  0  0  0  0  0  0  0
    0.5950    0.5192    0.2156 C   0  0  0  0  0  0  0  0  0  0  0  0
    0.1817   -0.7894   -0.0839 C   0  0  0  0  0  0  0  0  0  0  0  0
   -1.1416   -1.0367   -0.4116 C   0  0  0  0  0  0  0  0  0  0  0  0
   -2.5504    2.3307   -0.2019 H   0  0  0  0  0  0  0  0  0  0  0  0
    0.0405    2.5914    0.4183 H   0  0  0  0  0  0  0  0  0  0  0  0
    1.6353    0.7002    0.4698 H   0  0  0  0  0  0  0  0  0  0  0  0
    0.8936   -1.6073   -0.0611 H   0  0  0  0  0  0  0  0  0  0  0  0
   -1.4993   -2.0324   -0.6500 H   0  0  0  0  0  0  0  0  0  0  0  0
   -5.0387    3.0044    0.1849 S   0  0  0  0  0  0  0  0  0  0  0  0
   -3.7374    3.3227   -0.4828 O   0  0  0  0  0  0  0  0  0  0  0  0
   -5.0959    1.5694    0.6045 O   0  0  0  0  0  0  0  0  0  0  0  0
   -5.4970    3.9529    1.2029 O   0  0  0  0  0  0  0  0  0  0  0  0
   -6.1121    3.1432   -1.0692 O   0  0  0  0  0  0  0  0  0  0  0  0
   -6.9019    3.5501   -0.6803 H   0  0  0  0  0  0  0  0  0  0  0  0
  1  4  1  0  0  0  0
  2  1  1  0  0  0  0
  3  2  1  0  0  0  0
  4  5  2  0  0  0  0
  5  6  1  0  0  0  0
  5 10  1  0  0  0  0
  6 11  1  0  0  0  0
  7 12  1  0  0  0  0
  7  6  2  0  0  0  0
  8  1  2  0  0  0  0
  8  7  1  0  0  0  0
  9  4  1  0  0  0  0
 13  8  1  0  0  0  0
 14 16  2  0  0  0  0
 14 17  1  0  0  0  0
 15 14  2  0  0  0  0
 18 19  1  0  0  0  0
 18 14  1  0  0  0  0
M  RAD  3   2   2   3   3  17   2
M  END
