Coordinates from ORCA-job PhN2+~HSO4-_B3LYPG-6-31G_dp-CH-Scan-d09-49-n800
 OpenBabel11261919183D

 19 18  0  0  0  0  0  0  0  0999 V2000
   -1.9353   -0.1916   -0.0582 C   0  0  0  0  0  0  0  0  0  0  0  0
   -3.2540   -0.6172    0.0429 N   0  0  0  0  0  0  0  0  0  0  0  0
   -4.3224   -0.9293    0.1353 N   0  0  0  0  0  0  0  0  0  0  0  0
   -1.7361    1.1683    0.2416 C   0  0  0  0  0  0  0  0  0  0  0  0
   -0.3614    1.4993    0.1168 C   0  0  0  0  0  0  0  0  0  0  0  0
    0.6232    0.5865   -0.2512 C   0  0  0  0  0  0  0  0  0  0  0  0
    0.3132   -0.7646   -0.5331 C   0  0  0  0  0  0  0  0  0  0  0  0
   -0.9946   -1.1866   -0.4397 C   0  0  0  0  0  0  0  0  0  0  0  0
   -3.4859    2.7694    0.8230 H   0  0  0  0  0  0  0  0  0  0  0  0
   -0.0495    2.5229    0.3202 H   0  0  0  0  0  0  0  0  0  0  0  0
    1.6599    0.9087   -0.3278 H   0  0  0  0  0  0  0  0  0  0  0  0
    1.0946   -1.4607   -0.8194 H   0  0  0  0  0  0  0  0  0  0  0  0
   -1.2903   -2.2112   -0.6464 H   0  0  0  0  0  0  0  0  0  0  0  0
   -5.4964    3.0090    0.1142 S   0  0  0  0  0  0  0  0  0  0  0  0
   -4.2254    3.4029    1.0016 O   0  0  0  0  0  0  0  0  0  0  0  0
   -5.5683    1.5687   -0.0455 O   0  0  0  0  0  0  0  0  0  0  0  0
   -6.6011    3.8042    0.6110 O   0  0  0  0  0  0  0  0  0  0  0  0
   -5.0846    3.5746   -1.3599 O   0  0  0  0  0  0  0  0  0  0  0  0
   -5.3012    4.5220   -1.3769 H   0  0  0  0  0  0  0  0  0  0  0  0
  1  2  1  0  0  0  0
  1  4  2  0  0  0  0
  2  3  1  0  0  0  0
  5  4  1  0  0  0  0
  5 10  1  0  0  0  0
  6  5  2  0  0  0  0
  7  8  2  0  0  0  0
  7  6  1  0  0  0  0
  8  1  1  0  0  0  0
  9 15  1  0  0  0  0
 11  6  1  0  0  0  0
 12  7  1  0  0  0  0
 13  8  1  0  0  0  0
 14 17  2  0  0  0  0
 14 15  1  0  0  0  0
 16 14  2  0  0  0  0
 18 14  1  0  0  0  0
 19 18  1  0  0  0  0
M  RAD  3   2   2   3   3   4   2
M  END
