Coordinates from ORCA-job PhN2+~HSO4-_B3LYPG-6-31G_dp-CH-Scan-d09-49-n800
 OpenBabel11261919183D

 19 18  0  0  0  0  0  0  0  0999 V2000
   -1.8030   -0.2325   -0.0500 C   0  0  0  0  0  0  0  0  0  0  0  0
   -3.1399   -0.6005    0.0686 N   0  0  0  0  0  0  0  0  0  0  0  0
   -4.2222   -0.8564    0.1816 N   0  0  0  0  0  0  0  0  0  0  0  0
   -1.5538    1.1059    0.3001 C   0  0  0  0  0  0  0  0  0  0  0  0
   -0.1661    1.3838    0.1539 C   0  0  0  0  0  0  0  0  0  0  0  0
    0.7728    0.4497   -0.2733 C   0  0  0  0  0  0  0  0  0  0  0  0
    0.4044   -0.8781   -0.6004 C   0  0  0  0  0  0  0  0  0  0  0  0
   -0.9163   -1.2525   -0.4926 C   0  0  0  0  0  0  0  0  0  0  0  0
   -3.7820    3.1416    1.0412 H   0  0  0  0  0  0  0  0  0  0  0  0
    0.1945    2.3855    0.3887 H   0  0  0  0  0  0  0  0  0  0  0  0
    1.8199    0.7338   -0.3633 H   0  0  0  0  0  0  0  0  0  0  0  0
    1.1523   -1.5913   -0.9312 H   0  0  0  0  0  0  0  0  0  0  0  0
   -1.2579   -2.2560   -0.7308 H   0  0  0  0  0  0  0  0  0  0  0  0
   -5.7029    3.0994    0.0968 S   0  0  0  0  0  0  0  0  0  0  0  0
   -4.5838    3.6968    1.0927 O   0  0  0  0  0  0  0  0  0  0  0  0
   -5.5735    1.6587    0.0237 O   0  0  0  0  0  0  0  0  0  0  0  0
   -6.9347    3.7774    0.4406 O   0  0  0  0  0  0  0  0  0  0  0  0
   -5.1995    3.6493   -1.3505 O   0  0  0  0  0  0  0  0  0  0  0  0
   -5.5237    4.5609   -1.4472 H   0  0  0  0  0  0  0  0  0  0  0  0
  1  2  1  0  0  0  0
  1  4  2  0  0  0  0
  2  3  1  0  0  0  0
  5  4  1  0  0  0  0
  5 10  1  0  0  0  0
  6  5  2  0  0  0  0
  7  8  2  0  0  0  0
  7  6  1  0  0  0  0
  8  1  1  0  0  0  0
  9 15  1  0  0  0  0
 11  6  1  0  0  0  0
 12  7  1  0  0  0  0
 13  8  1  0  0  0  0
 14 17  2  0  0  0  0
 14 15  1  0  0  0  0
 16 14  2  0  0  0  0
 18 14  1  0  0  0  0
 19 18  1  0  0  0  0
M  RAD  3   2   2   3   3   4   2
M  END
