Coordinates from ORCA-job PhN2+~HSO4-_B3LYPG-6-31G_dp-CH-Scan-d09-49-n800
 OpenBabel11261919183D

 19 18  0  0  0  0  0  0  0  0999 V2000
   -2.0592   -0.0687   -0.2670 C   0  0  0  0  0  0  0  0  0  0  0  0
   -3.3811   -0.4677   -0.4001 N   0  0  0  0  0  0  0  0  0  0  0  0
   -4.4525   -0.7615   -0.5018 N   0  0  0  0  0  0  0  0  0  0  0  0
   -1.8507    1.2953    0.0113 C   0  0  0  0  0  0  0  0  0  0  0  0
   -0.4720    1.5875    0.1247 C   0  0  0  0  0  0  0  0  0  0  0  0
    0.5303    0.6317   -0.0238 C   0  0  0  0  0  0  0  0  0  0  0  0
    0.2252   -0.7173   -0.3050 C   0  0  0  0  0  0  0  0  0  0  0  0
   -1.0940   -1.0960   -0.4338 C   0  0  0  0  0  0  0  0  0  0  0  0
   -3.0303    2.5261    0.2474 H   0  0  0  0  0  0  0  0  0  0  0  0
   -0.1756    2.6116    0.3424 H   0  0  0  0  0  0  0  0  0  0  0  0
    1.5736    0.9219    0.0779 H   0  0  0  0  0  0  0  0  0  0  0  0
    1.0171   -1.4499   -0.4191 H   0  0  0  0  0  0  0  0  0  0  0  0
   -1.3838   -2.1197   -0.6507 H   0  0  0  0  0  0  0  0  0  0  0  0
   -5.1919    2.9710    0.3389 S   0  0  0  0  0  0  0  0  0  0  0  0
   -3.6789    3.3588    0.4424 O   0  0  0  0  0  0  0  0  0  0  0  0
   -5.3689    1.5420    0.5732 O   0  0  0  0  0  0  0  0  0  0  0  0
   -5.9818    3.9611    1.0514 O   0  0  0  0  0  0  0  0  0  0  0  0
   -5.5114    3.1562   -1.2626 O   0  0  0  0  0  0  0  0  0  0  0  0
   -5.7295    4.0929   -1.3971 H   0  0  0  0  0  0  0  0  0  0  0  0
  1  4  2  0  0  0  0
  2  1  1  0  0  0  0
  3  2  1  0  0  0  0
  4  5  1  0  0  0  0
  5 10  1  0  0  0  0
  6 11  1  0  0  0  0
  6  5  2  0  0  0  0
  7  6  1  0  0  0  0
  8  7  2  0  0  0  0
  8  1  1  0  0  0  0
  9 15  1  0  0  0  0
 12  7  1  0  0  0  0
 13  8  1  0  0  0  0
 14 15  1  0  0  0  0
 14 16  2  0  0  0  0
 14 17  2  0  0  0  0
 18 14  1  0  0  0  0
 19 18  1  0  0  0  0
M  RAD  3   2   2   3   3   4   2
M  END
