Coordinates from ORCA-job PhN2+~HSO4-_B3LYPG-6-31G_dp-CH-Scan-d09-49-n800
 OpenBabel11261919183D

 19 18  0  0  0  0  0  0  0  0999 V2000
   -1.7834   -0.2382   -0.0517 C   0  0  0  0  0  0  0  0  0  0  0  0
   -3.1233   -0.5970    0.0670 N   0  0  0  0  0  0  0  0  0  0  0  0
   -4.2075   -0.8441    0.1819 N   0  0  0  0  0  0  0  0  0  0  0  0
   -1.5269    1.0974    0.3029 C   0  0  0  0  0  0  0  0  0  0  0  0
   -0.1373    1.3671    0.1569 C   0  0  0  0  0  0  0  0  0  0  0  0
    0.7957    0.4287   -0.2738 C   0  0  0  0  0  0  0  0  0  0  0  0
    0.4191   -0.8959   -0.6053 C   0  0  0  0  0  0  0  0  0  0  0  0
   -0.9037   -1.2626   -0.4982 C   0  0  0  0  0  0  0  0  0  0  0  0
   -3.8229    3.1903    1.0611 H   0  0  0  0  0  0  0  0  0  0  0  0
    0.2298    2.3658    0.3948 H   0  0  0  0  0  0  0  0  0  0  0  0
    1.8445    0.7067   -0.3635 H   0  0  0  0  0  0  0  0  0  0  0  0
    1.1626   -1.6124   -0.9387 H   0  0  0  0  0  0  0  0  0  0  0  0
   -1.2517   -2.2633   -0.7394 H   0  0  0  0  0  0  0  0  0  0  0  0
   -5.7326    3.1135    0.0965 S   0  0  0  0  0  0  0  0  0  0  0  0
   -4.6315    3.7352    1.0993 O   0  0  0  0  0  0  0  0  0  0  0  0
   -5.5766    1.6751    0.0319 O   0  0  0  0  0  0  0  0  0  0  0  0
   -6.9782    3.7721    0.4280 O   0  0  0  0  0  0  0  0  0  0  0  0
   -5.2265    3.6658   -1.3485 O   0  0  0  0  0  0  0  0  0  0  0  0
   -5.5651    4.5713   -1.4524 H   0  0  0  0  0  0  0  0  0  0  0  0
  1  2  1  0  0  0  0
  1  4  2  0  0  0  0
  2  3  1  0  0  0  0
  5  4  1  0  0  0  0
  5 10  1  0  0  0  0
  6  5  2  0  0  0  0
  7  8  2  0  0  0  0
  7  6  1  0  0  0  0
  8  1  1  0  0  0  0
  9 15  1  0  0  0  0
 11  6  1  0  0  0  0
 12  7  1  0  0  0  0
 13  8  1  0  0  0  0
 14 17  2  0  0  0  0
 14 15  1  0  0  0  0
 16 14  2  0  0  0  0
 18 14  1  0  0  0  0
 19 18  1  0  0  0  0
M  RAD  3   2   2   3   3   4   2
M  END
