Coordinates from ORCA-job PhN2+~HSO4-_B3LYPG-6-31G_dp-CH-Scan-d09-49-n800
 OpenBabel11261919183D

 19 18  0  0  0  0  0  0  0  0999 V2000
   -1.8564   -0.2150   -0.0548 C   0  0  0  0  0  0  0  0  0  0  0  0
   -3.1865   -0.6059    0.0553 N   0  0  0  0  0  0  0  0  0  0  0  0
   -4.2636   -0.8850    0.1592 N   0  0  0  0  0  0  0  0  0  0  0  0
   -1.6271    1.1323    0.2759 C   0  0  0  0  0  0  0  0  0  0  0  0
   -0.2440    1.4311    0.1396 C   0  0  0  0  0  0  0  0  0  0  0  0
    0.7133    0.5048   -0.2635 C   0  0  0  0  0  0  0  0  0  0  0  0
    0.3682   -0.8327   -0.5734 C   0  0  0  0  0  0  0  0  0  0  0  0
   -0.9477   -1.2258   -0.4726 C   0  0  0  0  0  0  0  0  0  0  0  0
   -3.6584    2.9932    0.9555 H   0  0  0  0  0  0  0  0  0  0  0  0
    0.0973    2.4418    0.3626 H   0  0  0  0  0  0  0  0  0  0  0  0
    1.7567    0.8039   -0.3471 H   0  0  0  0  0  0  0  0  0  0  0  0
    1.1298   -1.5394   -0.8860 H   0  0  0  0  0  0  0  0  0  0  0  0
   -1.2711   -2.2380   -0.6989 H   0  0  0  0  0  0  0  0  0  0  0  0
   -5.6225    3.0632    0.1054 S   0  0  0  0  0  0  0  0  0  0  0  0
   -4.4358    3.5810    1.0594 O   0  0  0  0  0  0  0  0  0  0  0  0
   -5.5779    1.6185    0.0009 O   0  0  0  0  0  0  0  0  0  0  0  0
   -6.8034    3.7973    0.5098 O   0  0  0  0  0  0  0  0  0  0  0  0
   -5.1535    3.6106   -1.3556 O   0  0  0  0  0  0  0  0  0  0  0  0
   -5.4329    4.5394   -1.4229 H   0  0  0  0  0  0  0  0  0  0  0  0
  1  2  1  0  0  0  0
  1  4  2  0  0  0  0
  2  3  1  0  0  0  0
  5  4  1  0  0  0  0
  5 10  1  0  0  0  0
  6  5  2  0  0  0  0
  7  8  2  0  0  0  0
  7  6  1  0  0  0  0
  8  1  1  0  0  0  0
  9 15  1  0  0  0  0
 11  6  1  0  0  0  0
 12  7  1  0  0  0  0
 13  8  1  0  0  0  0
 14 17  2  0  0  0  0
 14 15  1  0  0  0  0
 16 14  2  0  0  0  0
 18 14  1  0  0  0  0
 19 18  1  0  0  0  0
M  RAD  3   2   2   3   3   4   2
M  END
