Coordinates from ORCA-job PhN2+~HSO4-_B3LYPG-6-31G_dp-CH-Scan-d09-49-n800
 OpenBabel11261919183D

 19 18  0  0  0  0  0  0  0  0999 V2000
   -1.6395   -0.2760   -0.0235 C   0  0  0  0  0  0  0  0  0  0  0  0
   -2.9954   -0.5656    0.1278 N   0  0  0  0  0  0  0  0  0  0  0  0
   -4.0897   -0.7444    0.2767 N   0  0  0  0  0  0  0  0  0  0  0  0
   -1.3125    1.0235    0.3952 C   0  0  0  0  0  0  0  0  0  0  0  0
    0.0857    1.2317    0.2133 C   0  0  0  0  0  0  0  0  0  0  0  0
    0.9556    0.2757   -0.3015 C   0  0  0  0  0  0  0  0  0  0  0  0
    0.5030   -1.0099   -0.6909 C   0  0  0  0  0  0  0  0  0  0  0  0
   -0.8320   -1.3183   -0.5565 C   0  0  0  0  0  0  0  0  0  0  0  0
   -4.1857    3.5871    1.2475 H   0  0  0  0  0  0  0  0  0  0  0  0
    0.5116    2.1968    0.4916 H   0  0  0  0  0  0  0  0  0  0  0  0
    2.0137    0.5074   -0.4146 H   0  0  0  0  0  0  0  0  0  0  0  0
    1.1993   -1.7412   -1.0883 H   0  0  0  0  0  0  0  0  0  0  0  0
   -1.2379   -2.2864   -0.8376 H   0  0  0  0  0  0  0  0  0  0  0  0
   -5.9325    3.2002    0.0705 S   0  0  0  0  0  0  0  0  0  0  0  0
   -5.0520    4.0206    1.1551 O   0  0  0  0  0  0  0  0  0  0  0  0
   -5.5478    1.8055    0.0996 O   0  0  0  0  0  0  0  0  0  0  0  0
   -7.2903    3.6701    0.2398 O   0  0  0  0  0  0  0  0  0  0  0  0
   -5.3555    3.7806   -1.3349 O   0  0  0  0  0  0  0  0  0  0  0  0
   -5.8136    4.6181   -1.5204 H   0  0  0  0  0  0  0  0  0  0  0  0
  1  2  1  0  0  0  0
  1  4  2  0  0  0  0
  2  3  1  0  0  0  0
  5  4  1  0  0  0  0
  5 10  1  0  0  0  0
  6  5  2  0  0  0  0
  7  8  2  0  0  0  0
  7  6  1  0  0  0  0
  8  1  1  0  0  0  0
 11  6  1  0  0  0  0
 12  7  1  0  0  0  0
 13  8  1  0  0  0  0
 14 16  2  0  0  0  0
 14 17  2  0  0  0  0
 14 15  1  0  0  0  0
 15  9  1  0  0  0  0
 18 14  1  0  0  0  0
 19 18  1  0  0  0  0
M  RAD  3   2   2   3   3   4   2
M  END
