Coordinates from ORCA-job PhN2+~HSO4-_B3LYPG-6-31G_dp-CH-Scan-d09-49-n800
 OpenBabel11261919183D

 19 18  0  0  0  0  0  0  0  0999 V2000
   -2.0172    0.3405   -0.0033 C   0  0  0  0  0  0  0  0  0  0  0  0
   -3.4072    0.1813    0.0588 N   0  0  0  0  0  0  0  0  0  0  0  0
   -4.4066   -0.3310    0.0931 N   0  0  0  0  0  0  0  0  0  0  0  0
   -1.4261    1.5460    0.3903 C   0  0  0  0  0  0  0  0  0  0  0  0
   -0.0352    1.6147    0.3361 C   0  0  0  0  0  0  0  0  0  0  0  0
    0.7213    0.5273   -0.1072 C   0  0  0  0  0  0  0  0  0  0  0  0
    0.0986   -0.6633   -0.5003 C   0  0  0  0  0  0  0  0  0  0  0  0
   -1.2849   -0.7738   -0.4468 C   0  0  0  0  0  0  0  0  0  0  0  0
   -1.9480    2.2483    0.6580 H   0  0  0  0  0  0  0  0  0  0  0  0
    0.4563    2.5341    0.6367 H   0  0  0  0  0  0  0  0  0  0  0  0
    1.8034    0.6051   -0.1501 H   0  0  0  0  0  0  0  0  0  0  0  0
    0.6898   -1.5051   -0.8450 H   0  0  0  0  0  0  0  0  0  0  0  0
   -1.7952   -1.6840   -0.7411 H   0  0  0  0  0  0  0  0  0  0  0  0
   -5.4014    2.6801    0.0270 S   0  0  0  0  0  0  0  0  0  0  0  0
   -3.9146    2.5431   -0.0578 O   0  0  0  0  0  0  0  0  0  0  0  0
   -6.0320    1.3537    0.2653 O   0  0  0  0  0  0  0  0  0  0  0  0
   -5.8852    3.7809    0.8643 O   0  0  0  0  0  0  0  0  0  0  0  0
   -5.8312    3.0998   -1.5177 O   0  0  0  0  0  0  0  0  0  0  0  0
   -6.4002    3.8776   -1.4115 H   0  0  0  0  0  0  0  0  0  0  0  0
  1  2  1  0  0  0  0
  1  4  2  0  0  0  0
  2  3  1  0  0  0  0
  4  9  1  0  0  0  0
  5  4  1  0  0  0  0
  5 10  1  0  0  0  0
  6  5  2  0  0  0  0
  7  8  2  0  0  0  0
  7  6  1  0  0  0  0
  8  1  1  0  0  0  0
 11  6  1  0  0  0  0
 12  7  1  0  0  0  0
 13  8  1  0  0  0  0
 14 16  2  0  0  0  0
 14 17  1  0  0  0  0
 15 14  2  0  0  0  0
 18 19  1  0  0  0  0
 18 14  1  0  0  0  0
M  RAD  3   2   2   3   3  17   2
M  END
