Coordinates from ORCA-job PhN2+~HSO4-_B3LYPG-6-31G_dp-CH-Scan-d09-49-n800
 OpenBabel11261919183D

 19 18  0  0  0  0  0  0  0  0999 V2000
   -1.9688   -0.1817   -0.0582 C   0  0  0  0  0  0  0  0  0  0  0  0
   -3.2823   -0.6223    0.0396 N   0  0  0  0  0  0  0  0  0  0  0  0
   -4.3468   -0.9477    0.1283 N   0  0  0  0  0  0  0  0  0  0  0  0
   -1.7816    1.1822    0.2330 C   0  0  0  0  0  0  0  0  0  0  0  0
   -0.4106    1.5264    0.1120 C   0  0  0  0  0  0  0  0  0  0  0  0
    0.5844    0.6208   -0.2460 C   0  0  0  0  0  0  0  0  0  0  0  0
    0.2884   -0.7345   -0.5204 C   0  0  0  0  0  0  0  0  0  0  0  0
   -1.0158   -1.1684   -0.4294 C   0  0  0  0  0  0  0  0  0  0  0  0
   -3.4166    2.6790    0.7740 H   0  0  0  0  0  0  0  0  0  0  0  0
   -0.1108    2.5544    0.3102 H   0  0  0  0  0  0  0  0  0  0  0  0
    1.6181    0.9527   -0.3201 H   0  0  0  0  0  0  0  0  0  0  0  0
    1.0774   -1.4251   -0.7991 H   0  0  0  0  0  0  0  0  0  0  0  0
   -1.3007   -2.1970   -0.6308 H   0  0  0  0  0  0  0  0  0  0  0  0
   -5.4399    2.9865    0.1184 S   0  0  0  0  0  0  0  0  0  0  0  0
   -4.1404    3.3351    0.9742 O   0  0  0  0  0  0  0  0  0  0  0  0
   -5.5576    1.5498   -0.0546 O   0  0  0  0  0  0  0  0  0  0  0  0
   -6.5142    3.8043    0.6460 O   0  0  0  0  0  0  0  0  0  0  0  0
   -5.0524    3.5542   -1.3631 O   0  0  0  0  0  0  0  0  0  0  0  0
   -5.2455    4.5067   -1.3655 H   0  0  0  0  0  0  0  0  0  0  0  0
  1  2  1  0  0  0  0
  1  4  2  0  0  0  0
  2  3  1  0  0  0  0
  5  4  1  0  0  0  0
  5 10  1  0  0  0  0
  6  5  2  0  0  0  0
  7  8  2  0  0  0  0
  7  6  1  0  0  0  0
  8  1  1  0  0  0  0
  9 15  1  0  0  0  0
 11  6  1  0  0  0  0
 12  7  1  0  0  0  0
 13  8  1  0  0  0  0
 14 17  2  0  0  0  0
 14 15  1  0  0  0  0
 16 14  2  0  0  0  0
 18 14  1  0  0  0  0
 19 18  1  0  0  0  0
M  RAD  3   2   2   3   3   4   2
M  END
