Coordinates from ORCA-job PhN2+~HSO4-_B3LYPG-6-31G_dp-CH-Scan-d09-49-n800
 OpenBabel11261919183D

 19 18  0  0  0  0  0  0  0  0999 V2000
   -1.8977   -0.2024   -0.0588 C   0  0  0  0  0  0  0  0  0  0  0  0
   -3.2222   -0.6113    0.0445 N   0  0  0  0  0  0  0  0  0  0  0  0
   -4.2950   -0.9078    0.1413 N   0  0  0  0  0  0  0  0  0  0  0  0
   -1.6846    1.1524    0.2529 C   0  0  0  0  0  0  0  0  0  0  0  0
   -0.3055    1.4677    0.1252 C   0  0  0  0  0  0  0  0  0  0  0  0
    0.6669    0.5473   -0.2552 C   0  0  0  0  0  0  0  0  0  0  0  0
    0.3407   -0.7982   -0.5481 C   0  0  0  0  0  0  0  0  0  0  0  0
   -0.9714   -1.2061   -0.4533 C   0  0  0  0  0  0  0  0  0  0  0  0
   -3.5630    2.8720    0.8776 H   0  0  0  0  0  0  0  0  0  0  0  0
    0.0200    2.4858    0.3363 H   0  0  0  0  0  0  0  0  0  0  0  0
    1.7070    0.8582   -0.3335 H   0  0  0  0  0  0  0  0  0  0  0  0
    1.1133   -1.5002   -0.8436 H   0  0  0  0  0  0  0  0  0  0  0  0
   -1.2798   -2.2254   -0.6677 H   0  0  0  0  0  0  0  0  0  0  0  0
   -5.5575    3.0351    0.1113 S   0  0  0  0  0  0  0  0  0  0  0  0
   -4.3195    3.4842    1.0267 O   0  0  0  0  0  0  0  0  0  0  0  0
   -5.5765    1.5918   -0.0271 O   0  0  0  0  0  0  0  0  0  0  0  0
   -6.6958    3.8030    0.5726 O   0  0  0  0  0  0  0  0  0  0  0  0
   -5.1249    3.5947   -1.3577 O   0  0  0  0  0  0  0  0  0  0  0  0
   -5.3700    4.5347   -1.3945 H   0  0  0  0  0  0  0  0  0  0  0  0
  1  2  1  0  0  0  0
  1  4  2  0  0  0  0
  2  3  1  0  0  0  0
  5  4  1  0  0  0  0
  5 10  1  0  0  0  0
  6  5  2  0  0  0  0
  7  8  2  0  0  0  0
  7  6  1  0  0  0  0
  8  1  1  0  0  0  0
  9 15  1  0  0  0  0
 11  6  1  0  0  0  0
 12  7  1  0  0  0  0
 13  8  1  0  0  0  0
 14 17  2  0  0  0  0
 14 15  1  0  0  0  0
 16 14  2  0  0  0  0
 18 14  1  0  0  0  0
 19 18  1  0  0  0  0
M  RAD  3   2   2   3   3   4   2
M  END
