Coordinates from ORCA-job PhN2+~HSO4-_B3LYPG-6-31G_dp-CH-Scan-d09-49-n800
 OpenBabel11261919183D

 19 18  0  0  0  0  0  0  0  0999 V2000
   -1.7679   -0.2428   -0.0532 C   0  0  0  0  0  0  0  0  0  0  0  0
   -3.1101   -0.5942    0.0650 N   0  0  0  0  0  0  0  0  0  0  0  0
   -4.1961   -0.8336    0.1808 N   0  0  0  0  0  0  0  0  0  0  0  0
   -1.5060    1.0905    0.3054 C   0  0  0  0  0  0  0  0  0  0  0  0
   -0.1148    1.3537    0.1597 C   0  0  0  0  0  0  0  0  0  0  0  0
    0.8136    0.4121   -0.2738 C   0  0  0  0  0  0  0  0  0  0  0  0
    0.4307   -0.9099   -0.6090 C   0  0  0  0  0  0  0  0  0  0  0  0
   -0.8938   -1.2706   -0.5028 C   0  0  0  0  0  0  0  0  0  0  0  0
   -3.8542    3.2291    1.0751 H   0  0  0  0  0  0  0  0  0  0  0  0
    0.2573    2.3500    0.4004 H   0  0  0  0  0  0  0  0  0  0  0  0
    1.8638    0.6853   -0.3629 H   0  0  0  0  0  0  0  0  0  0  0  0
    1.1709   -1.6289   -0.9445 H   0  0  0  0  0  0  0  0  0  0  0  0
   -1.2467   -2.2689   -0.7468 H   0  0  0  0  0  0  0  0  0  0  0  0
   -5.7558    3.1247    0.0969 S   0  0  0  0  0  0  0  0  0  0  0  0
   -4.6680    3.7657    1.1034 O   0  0  0  0  0  0  0  0  0  0  0  0
   -5.5789    1.6885    0.0399 O   0  0  0  0  0  0  0  0  0  0  0  0
   -7.0116    3.7680    0.4193 O   0  0  0  0  0  0  0  0  0  0  0  0
   -5.2489    3.6781   -1.3472 O   0  0  0  0  0  0  0  0  0  0  0  0
   -5.5991    4.5786   -1.4570 H   0  0  0  0  0  0  0  0  0  0  0  0
  1  2  1  0  0  0  0
  1  4  2  0  0  0  0
  2  3  1  0  0  0  0
  5  4  1  0  0  0  0
  5 10  1  0  0  0  0
  6  5  2  0  0  0  0
  7  8  2  0  0  0  0
  7  6  1  0  0  0  0
  8  1  1  0  0  0  0
  9 15  1  0  0  0  0
 11  6  1  0  0  0  0
 12  7  1  0  0  0  0
 13  8  1  0  0  0  0
 14 17  2  0  0  0  0
 14 15  1  0  0  0  0
 16 14  2  0  0  0  0
 18 14  1  0  0  0  0
 19 18  1  0  0  0  0
M  RAD  3   2   2   3   3   4   2
M  END
