Coordinates from ORCA-job PhN2+~HSO4-_B3LYPG-6-31G_dp-CH-Scan-d09-49-n800
 OpenBabel11261919183D

 19 18  0  0  0  0  0  0  0  0999 V2000
   -1.6528   -0.2732   -0.0320 C   0  0  0  0  0  0  0  0  0  0  0  0
   -3.0080   -0.5692    0.1111 N   0  0  0  0  0  0  0  0  0  0  0  0
   -4.1022   -0.7542    0.2524 N   0  0  0  0  0  0  0  0  0  0  0  0
   -1.3346    1.0312    0.3787 C   0  0  0  0  0  0  0  0  0  0  0  0
    0.0639    1.2446    0.2059 C   0  0  0  0  0  0  0  0  0  0  0  0
    0.9421    0.2887   -0.2946 C   0  0  0  0  0  0  0  0  0  0  0  0
    0.4985   -1.0020   -0.6773 C   0  0  0  0  0  0  0  0  0  0  0  0
   -0.8360   -1.3156   -0.5506 C   0  0  0  0  0  0  0  0  0  0  0  0
   -4.1423    3.5554    1.2227 H   0  0  0  0  0  0  0  0  0  0  0  0
    0.4830    2.2139    0.4797 H   0  0  0  0  0  0  0  0  0  0  0  0
    2.0000    0.5244   -0.4013 H   0  0  0  0  0  0  0  0  0  0  0  0
    1.2012   -1.7331   -1.0637 H   0  0  0  0  0  0  0  0  0  0  0  0
   -1.2353   -2.2877   -0.8273 H   0  0  0  0  0  0  0  0  0  0  0  0
   -5.9158    3.1941    0.0777 S   0  0  0  0  0  0  0  0  0  0  0  0
   -5.0053    3.9991    1.1482 O   0  0  0  0  0  0  0  0  0  0  0  0
   -5.5523    1.7934    0.0970 O   0  0  0  0  0  0  0  0  0  0  0  0
   -7.2634    3.6837    0.2709 O   0  0  0  0  0  0  0  0  0  0  0  0
   -5.3542    3.7684   -1.3366 O   0  0  0  0  0  0  0  0  0  0  0  0
   -5.8021    4.6136   -1.5122 H   0  0  0  0  0  0  0  0  0  0  0  0
  1  2  1  0  0  0  0
  1  4  2  0  0  0  0
  2  3  1  0  0  0  0
  5  4  1  0  0  0  0
  5 10  1  0  0  0  0
  6  5  2  0  0  0  0
  7  8  2  0  0  0  0
  7  6  1  0  0  0  0
  8  1  1  0  0  0  0
 11  6  1  0  0  0  0
 12  7  1  0  0  0  0
 13  8  1  0  0  0  0
 14 16  2  0  0  0  0
 14 17  2  0  0  0  0
 14 15  1  0  0  0  0
 15  9  1  0  0  0  0
 18 14  1  0  0  0  0
 19 18  1  0  0  0  0
M  RAD  3   2   2   3   3   4   2
M  END
