Coordinates from ORCA-job PhN2+~HSO4-_B3LYPG-6-31G_dp-CH-Scan-d09-49-n800
 OpenBabel11261919183D

 19 18  0  0  0  0  0  0  0  0999 V2000
   -1.8886   -0.2053   -0.0582 C   0  0  0  0  0  0  0  0  0  0  0  0
   -3.2142   -0.6104    0.0464 N   0  0  0  0  0  0  0  0  0  0  0  0
   -4.2882   -0.9025    0.1444 N   0  0  0  0  0  0  0  0  0  0  0  0
   -1.6722    1.1481    0.2574 C   0  0  0  0  0  0  0  0  0  0  0  0
   -0.2922    1.4598    0.1280 C   0  0  0  0  0  0  0  0  0  0  0  0
    0.6771    0.5380   -0.2567 C   0  0  0  0  0  0  0  0  0  0  0  0
    0.3470   -0.8059   -0.5530 C   0  0  0  0  0  0  0  0  0  0  0  0
   -0.9658   -1.2107   -0.4571 C   0  0  0  0  0  0  0  0  0  0  0  0
   -3.5829    2.8972    0.8932 H   0  0  0  0  0  0  0  0  0  0  0  0
    0.0367    2.4764    0.3414 H   0  0  0  0  0  0  0  0  0  0  0  0
    1.7180    0.8463   -0.3360 H   0  0  0  0  0  0  0  0  0  0  0  0
    1.1174   -1.5091   -0.8518 H   0  0  0  0  0  0  0  0  0  0  0  0
   -1.2774   -2.2286   -0.6739 H   0  0  0  0  0  0  0  0  0  0  0  0
   -5.5722    3.0415    0.1100 S   0  0  0  0  0  0  0  0  0  0  0  0
   -4.3436    3.5045    1.0332 O   0  0  0  0  0  0  0  0  0  0  0  0
   -5.5778    1.5978   -0.0218 O   0  0  0  0  0  0  0  0  0  0  0  0
   -6.7192    3.8025    0.5605 O   0  0  0  0  0  0  0  0  0  0  0  0
   -5.1328    3.5990   -1.3574 O   0  0  0  0  0  0  0  0  0  0  0  0
   -5.3850    4.5368   -1.3999 H   0  0  0  0  0  0  0  0  0  0  0  0
  1  2  1  0  0  0  0
  1  4  2  0  0  0  0
  2  3  1  0  0  0  0
  5  4  1  0  0  0  0
  5 10  1  0  0  0  0
  6  5  2  0  0  0  0
  7  8  2  0  0  0  0
  7  6  1  0  0  0  0
  8  1  1  0  0  0  0
  9 15  1  0  0  0  0
 11  6  1  0  0  0  0
 12  7  1  0  0  0  0
 13  8  1  0  0  0  0
 14 17  2  0  0  0  0
 14 15  1  0  0  0  0
 16 14  2  0  0  0  0
 18 14  1  0  0  0  0
 19 18  1  0  0  0  0
M  RAD  3   2   2   3   3   4   2
M  END
