Coordinates from ORCA-job PhN2+~HSO4-_B3LYPG-6-31G_dp-CH-Scan-d09-49-n800
 OpenBabel11261919183D

 19 18  0  0  0  0  0  0  0  0999 V2000
   -1.6214   -0.2792   -0.0105 C   0  0  0  0  0  0  0  0  0  0  0  0
   -2.9780   -0.5603    0.1532 N   0  0  0  0  0  0  0  0  0  0  0  0
   -4.0721   -0.7312    0.3121 N   0  0  0  0  0  0  0  0  0  0  0  0
   -1.2815    1.0129    0.4199 C   0  0  0  0  0  0  0  0  0  0  0  0
    0.1162    1.2140    0.2248 C   0  0  0  0  0  0  0  0  0  0  0  0
    0.9737    0.2585   -0.3113 C   0  0  0  0  0  0  0  0  0  0  0  0
    0.5080   -1.0195   -0.7106 C   0  0  0  0  0  0  0  0  0  0  0  0
   -0.8274   -1.3207   -0.5648 C   0  0  0  0  0  0  0  0  0  0  0  0
   -4.2451    3.6267    1.2793 H   0  0  0  0  0  0  0  0  0  0  0  0
    0.5517    2.1730    0.5095 H   0  0  0  0  0  0  0  0  0  0  0  0
    2.0319    0.4844   -0.4338 H   0  0  0  0  0  0  0  0  0  0  0  0
    1.1950   -1.7507   -1.1243 H   0  0  0  0  0  0  0  0  0  0  0  0
   -1.2430   -2.2828   -0.8524 H   0  0  0  0  0  0  0  0  0  0  0  0
   -5.9552    3.2083    0.0602 S   0  0  0  0  0  0  0  0  0  0  0  0
   -5.1147    4.0475    1.1626 O   0  0  0  0  0  0  0  0  0  0  0  0
   -5.5446    1.8213    0.1027 O   0  0  0  0  0  0  0  0  0  0  0  0
   -7.3249    3.6533    0.1972 O   0  0  0  0  0  0  0  0  0  0  0  0
   -5.3570    3.7962   -1.3329 O   0  0  0  0  0  0  0  0  0  0  0  0
   -5.8274    4.6238   -1.5322 H   0  0  0  0  0  0  0  0  0  0  0  0
  1  2  1  0  0  0  0
  1  4  2  0  0  0  0
  2  3  1  0  0  0  0
  5  4  1  0  0  0  0
  5 10  1  0  0  0  0
  6  5  2  0  0  0  0
  7  8  2  0  0  0  0
  7  6  1  0  0  0  0
  8  1  1  0  0  0  0
 11  6  1  0  0  0  0
 12  7  1  0  0  0  0
 13  8  1  0  0  0  0
 14 16  2  0  0  0  0
 14 17  2  0  0  0  0
 14 15  1  0  0  0  0
 15  9  1  0  0  0  0
 18 14  1  0  0  0  0
 19 18  1  0  0  0  0
M  RAD  3   2   2   3   3   4   2
M  END
