Coordinates from ORCA-job PhN2+~HSO4-_B3LYPG-6-31G_dp-CH-Scan-d09-49-n800
 OpenBabel11261919183D

 19 18  0  0  0  0  0  0  0  0999 V2000
   -1.9481   -0.1880   -0.0578 C   0  0  0  0  0  0  0  0  0  0  0  0
   -3.2647   -0.6193    0.0425 N   0  0  0  0  0  0  0  0  0  0  0  0
   -4.3316   -0.9367    0.1339 N   0  0  0  0  0  0  0  0  0  0  0  0
   -1.7534    1.1735    0.2389 C   0  0  0  0  0  0  0  0  0  0  0  0
   -0.3802    1.5096    0.1151 C   0  0  0  0  0  0  0  0  0  0  0  0
    0.6083    0.5997   -0.2496 C   0  0  0  0  0  0  0  0  0  0  0  0
    0.3037   -0.7530   -0.5288 C   0  0  0  0  0  0  0  0  0  0  0  0
   -1.0027   -1.1797   -0.4359 C   0  0  0  0  0  0  0  0  0  0  0  0
   -3.4602    2.7352    0.8057 H   0  0  0  0  0  0  0  0  0  0  0  0
   -0.0729    2.5350    0.3165 H   0  0  0  0  0  0  0  0  0  0  0  0
    1.6438    0.9258   -0.3257 H   0  0  0  0  0  0  0  0  0  0  0  0
    1.0879   -1.4469   -0.8126 H   0  0  0  0  0  0  0  0  0  0  0  0
   -1.2943   -2.2058   -0.6406 H   0  0  0  0  0  0  0  0  0  0  0  0
   -5.4751    3.0003    0.1154 S   0  0  0  0  0  0  0  0  0  0  0  0
   -4.1938    3.3770    0.9924 O   0  0  0  0  0  0  0  0  0  0  0  0
   -5.5644    1.5612   -0.0497 O   0  0  0  0  0  0  0  0  0  0  0  0
   -6.5687    3.8044    0.6229 O   0  0  0  0  0  0  0  0  0  0  0  0
   -5.0709    3.5667   -1.3611 O   0  0  0  0  0  0  0  0  0  0  0  0
   -5.2782    4.5162   -1.3727 H   0  0  0  0  0  0  0  0  0  0  0  0
  1  2  1  0  0  0  0
  1  4  2  0  0  0  0
  2  3  1  0  0  0  0
  5  4  1  0  0  0  0
  5 10  1  0  0  0  0
  6  5  2  0  0  0  0
  7  8  2  0  0  0  0
  7  6  1  0  0  0  0
  8  1  1  0  0  0  0
  9 15  1  0  0  0  0
 11  6  1  0  0  0  0
 12  7  1  0  0  0  0
 13  8  1  0  0  0  0
 14 17  2  0  0  0  0
 14 15  1  0  0  0  0
 16 14  2  0  0  0  0
 18 14  1  0  0  0  0
 19 18  1  0  0  0  0
M  RAD  3   2   2   3   3   4   2
M  END
