Coordinates from ORCA-job PhN2+~HSO4-_B3LYPG-6-31G_dp-CH-Scan-d09-49-n800
 OpenBabel11261919183D

 19 18  0  0  0  0  0  0  0  0999 V2000
   -1.7468   -0.2750    0.8377 C   0  0  0  0  0  0  0  0  0  0  0  0
   -2.8582   -0.9319    1.3746 N   0  0  0  0  0  0  0  0  0  0  0  0
   -3.6988   -1.4738    1.8743 N   0  0  0  0  0  0  0  0  0  0  0  0
   -0.6302   -0.3559    1.6808 C   0  0  0  0  0  0  0  0  0  0  0  0
    0.4480    0.3725    1.0885 C   0  0  0  0  0  0  0  0  0  0  0  0
    0.3589    1.0507   -0.1213 C   0  0  0  0  0  0  0  0  0  0  0  0
   -0.8302    1.0353   -0.8987 C   0  0  0  0  0  0  0  0  0  0  0  0
   -1.9308    0.3497   -0.4273 C   0  0  0  0  0  0  0  0  0  0  0  0
   -3.0172    2.8377   -0.5103 H   0  0  0  0  0  0  0  0  0  0  0  0
    1.4037    0.4086    1.6133 H   0  0  0  0  0  0  0  0  0  0  0  0
    1.2190    1.5978   -0.5038 H   0  0  0  0  0  0  0  0  0  0  0  0
   -0.8575    1.5251   -1.8675 H   0  0  0  0  0  0  0  0  0  0  0  0
   -2.8575    0.2639   -0.9872 H   0  0  0  0  0  0  0  0  0  0  0  0
   -5.1464    2.5717   -0.4959 S   0  0  0  0  0  0  0  0  0  0  0  0
   -3.7830    3.4361   -0.6009 O   0  0  0  0  0  0  0  0  0  0  0  0
   -4.9178    1.4170    0.3492 O   0  0  0  0  0  0  0  0  0  0  0  0
   -6.2072    3.5311   -0.2887 O   0  0  0  0  0  0  0  0  0  0  0  0
   -5.2700    1.9704   -2.0044 O   0  0  0  0  0  0  0  0  0  0  0  0
   -5.6936    2.6443   -2.5636 H   0  0  0  0  0  0  0  0  0  0  0  0
  1  2  1  0  0  0  0
  1  4  2  0  0  0  0
  2  3  1  0  0  0  0
  5 10  1  0  0  0  0
  5  4  1  0  0  0  0
  6  5  2  0  0  0  0
  7  8  2  0  0  0  0
  7  6  1  0  0  0  0
  8  1  1  0  0  0  0
 11  6  1  0  0  0  0
 12  7  1  0  0  0  0
 13  8  1  0  0  0  0
 14 17  2  0  0  0  0
 14 16  2  0  0  0  0
 15  9  1  0  0  0  0
 15 14  1  0  0  0  0
 18 14  1  0  0  0  0
 19 18  1  0  0  0  0
M  RAD  3   2   2   3   3   4   2
M  END
