Coordinates from ORCA-job PhN2+~HSO4-_B3LYPG-6-31G_dp-CH-Scan-d09-49-n800
 OpenBabel11261919183D

 19 18  0  0  0  0  0  0  0  0999 V2000
   -1.6743   -0.2678   -0.0423 C   0  0  0  0  0  0  0  0  0  0  0  0
   -3.0280   -0.5735    0.0916 N   0  0  0  0  0  0  0  0  0  0  0  0
   -4.1214   -0.7680    0.2251 N   0  0  0  0  0  0  0  0  0  0  0  0
   -1.3690    1.0440    0.3551 C   0  0  0  0  0  0  0  0  0  0  0  0
    0.0290    1.2664    0.1929 C   0  0  0  0  0  0  0  0  0  0  0  0
    0.9193    0.3111   -0.2872 C   0  0  0  0  0  0  0  0  0  0  0  0
    0.4890   -0.9874   -0.6582 C   0  0  0  0  0  0  0  0  0  0  0  0
   -0.8442   -1.3096   -0.5404 C   0  0  0  0  0  0  0  0  0  0  0  0
   -4.0819    3.4911    1.1940 H   0  0  0  0  0  0  0  0  0  0  0  0
    0.4380    2.2422    0.4587 H   0  0  0  0  0  0  0  0  0  0  0  0
    1.9763    0.5536   -0.3865 H   0  0  0  0  0  0  0  0  0  0  0  0
    1.2007   -1.7177   -1.0292 H   0  0  0  0  0  0  0  0  0  0  0  0
   -1.2335   -2.2880   -0.8092 H   0  0  0  0  0  0  0  0  0  0  0  0
   -5.8876    3.1834    0.0853 S   0  0  0  0  0  0  0  0  0  0  0  0
   -4.9338    3.9589    1.1388 O   0  0  0  0  0  0  0  0  0  0  0  0
   -5.5609    1.7734    0.0897 O   0  0  0  0  0  0  0  0  0  0  0  0
   -7.2179    3.7064    0.3098 O   0  0  0  0  0  0  0  0  0  0  0  0
   -5.3430    3.7498   -1.3388 O   0  0  0  0  0  0  0  0  0  0  0  0
   -5.7723    4.6072   -1.5005 H   0  0  0  0  0  0  0  0  0  0  0  0
  1  2  1  0  0  0  0
  1  4  2  0  0  0  0
  2  3  1  0  0  0  0
  5  4  1  0  0  0  0
  5 10  1  0  0  0  0
  6  5  2  0  0  0  0
  7  8  2  0  0  0  0
  7  6  1  0  0  0  0
  8  1  1  0  0  0  0
 11  6  1  0  0  0  0
 12  7  1  0  0  0  0
 13  8  1  0  0  0  0
 14 16  2  0  0  0  0
 14 17  2  0  0  0  0
 14 15  1  0  0  0  0
 15  9  1  0  0  0  0
 18 14  1  0  0  0  0
 19 18  1  0  0  0  0
M  RAD  3   2   2   3   3   4   2
M  END
