Coordinates from ORCA-job PhN2+~HSO4-_B3LYPG-6-31G_dp-CH-Scan-d09-49-n800
 OpenBabel11261919183D

 19 18  0  0  0  0  0  0  0  0999 V2000
   -1.7092   -0.2587   -0.0525 C   0  0  0  0  0  0  0  0  0  0  0  0
   -3.0593   -0.5814    0.0701 N   0  0  0  0  0  0  0  0  0  0  0  0
   -4.1510   -0.7923    0.1911 N   0  0  0  0  0  0  0  0  0  0  0  0
   -1.4227    1.0634    0.3258 C   0  0  0  0  0  0  0  0  0  0  0  0
   -0.0263    1.3008    0.1758 C   0  0  0  0  0  0  0  0  0  0  0  0
    0.8811    0.3485   -0.2779 C   0  0  0  0  0  0  0  0  0  0  0  0
    0.4708   -0.9609   -0.6317 C   0  0  0  0  0  0  0  0  0  0  0  0
   -0.8597   -1.2976   -0.5234 C   0  0  0  0  0  0  0  0  0  0  0  0
   -3.9857    3.3862    1.1393 H   0  0  0  0  0  0  0  0  0  0  0  0
    0.3674    2.2858    0.4297 H   0  0  0  0  0  0  0  0  0  0  0  0
    1.9360    0.6024   -0.3692 H   0  0  0  0  0  0  0  0  0  0  0  0
    1.1954   -1.6887   -0.9824 H   0  0  0  0  0  0  0  0  0  0  0  0
   -1.2337   -2.2850   -0.7804 H   0  0  0  0  0  0  0  0  0  0  0  0
   -5.8411    3.1639    0.0941 S   0  0  0  0  0  0  0  0  0  0  0  0
   -4.8220    3.8848    1.1227 O   0  0  0  0  0  0  0  0  0  0  0  0
   -5.5762    1.7409    0.0708 O   0  0  0  0  0  0  0  0  0  0  0  0
   -7.1404    3.7390    0.3682 O   0  0  0  0  0  0  0  0  0  0  0  0
   -5.3209    3.7237   -1.3421 O   0  0  0  0  0  0  0  0  0  0  0  0
   -5.7183    4.6006   -1.4793 H   0  0  0  0  0  0  0  0  0  0  0  0
  1  2  1  0  0  0  0
  1  4  2  0  0  0  0
  2  3  1  0  0  0  0
  5  4  1  0  0  0  0
  5 10  1  0  0  0  0
  6  5  2  0  0  0  0
  7  8  2  0  0  0  0
  7  6  1  0  0  0  0
  8  1  1  0  0  0  0
 11  6  1  0  0  0  0
 12  7  1  0  0  0  0
 13  8  1  0  0  0  0
 14 17  2  0  0  0  0
 14 15  1  0  0  0  0
 15  9  1  0  0  0  0
 16 14  2  0  0  0  0
 18 14  1  0  0  0  0
 19 18  1  0  0  0  0
M  RAD  3   2   2   3   3   4   2
M  END
