Coordinates from ORCA-job PhN2+~HSO4-_B3LYPG-6-31G_dp-CH-Scan-d09-49-n800
 OpenBabel11261919183D

 19 18  0  0  0  0  0  0  0  0999 V2000
   -1.7124   -0.2502    0.8506 C   0  0  0  0  0  0  0  0  0  0  0  0
   -2.8476   -0.8617    1.3903 N   0  0  0  0  0  0  0  0  0  0  0  0
   -3.7073   -1.3713    1.8918 N   0  0  0  0  0  0  0  0  0  0  0  0
   -0.5939   -0.3924    1.6836 C   0  0  0  0  0  0  0  0  0  0  0  0
    0.5144    0.2829    1.0856 C   0  0  0  0  0  0  0  0  0  0  0  0
    0.4501    0.9675   -0.1226 C   0  0  0  0  0  0  0  0  0  0  0  0
   -0.7456    1.0206   -0.8867 C   0  0  0  0  0  0  0  0  0  0  0  0
   -1.8763    0.3935   -0.4075 C   0  0  0  0  0  0  0  0  0  0  0  0
   -3.1499    3.0066   -0.4761 H   0  0  0  0  0  0  0  0  0  0  0  0
    1.4750    0.2689    1.6024 H   0  0  0  0  0  0  0  0  0  0  0  0
    1.3348    1.4687   -0.5121 H   0  0  0  0  0  0  0  0  0  0  0  0
   -0.7581    1.5226   -1.8495 H   0  0  0  0  0  0  0  0  0  0  0  0
   -2.8134    0.3637   -0.9557 H   0  0  0  0  0  0  0  0  0  0  0  0
   -5.2475    2.5614   -0.5204 S   0  0  0  0  0  0  0  0  0  0  0  0
   -3.9588    3.5403   -0.5797 O   0  0  0  0  0  0  0  0  0  0  0  0
   -4.9346    1.4130    0.3063 O   0  0  0  0  0  0  0  0  0  0  0  0
   -6.3885    3.4236   -0.3141 O   0  0  0  0  0  0  0  0  0  0  0  0
   -5.2916    1.9862   -2.0420 O   0  0  0  0  0  0  0  0  0  0  0  0
   -5.7645    2.6314   -2.5956 H   0  0  0  0  0  0  0  0  0  0  0  0
  1  2  1  0  0  0  0
  1  4  2  0  0  0  0
  2  3  1  0  0  0  0
  5 10  1  0  0  0  0
  5  4  1  0  0  0  0
  6  5  2  0  0  0  0
  7  8  2  0  0  0  0
  7  6  1  0  0  0  0
  8  1  1  0  0  0  0
 11  6  1  0  0  0  0
 12  7  1  0  0  0  0
 13  8  1  0  0  0  0
 14 17  2  0  0  0  0
 14 16  2  0  0  0  0
 15 14  1  0  0  0  0
 15  9  1  0  0  0  0
 18 14  1  0  0  0  0
 19 18  1  0  0  0  0
M  RAD  3   2   2   3   3   4   2
M  END
