Coordinates from ORCA-job PhN2+~HSO4-_B3LYPG-6-31G_dp-CH-Scan-d09-49-n800
 OpenBabel11261919183D

 19 18  0  0  0  0  0  0  0  0999 V2000
   -1.5967   -0.2829    0.0059 C   0  0  0  0  0  0  0  0  0  0  0  0
   -2.9542   -0.5519    0.1835 N   0  0  0  0  0  0  0  0  0  0  0  0
   -4.0478   -0.7116    0.3581 N   0  0  0  0  0  0  0  0  0  0  0  0
   -1.2384    0.9975    0.4552 C   0  0  0  0  0  0  0  0  0  0  0  0
    0.1586    1.1883    0.2448 C   0  0  0  0  0  0  0  0  0  0  0  0
    0.9989    0.2345   -0.3205 C   0  0  0  0  0  0  0  0  0  0  0  0
    0.5150   -1.0314   -0.7367 C   0  0  0  0  0  0  0  0  0  0  0  0
   -0.8213   -1.3221   -0.5781 C   0  0  0  0  0  0  0  0  0  0  0  0
   -4.3161    3.6776    1.3073 H   0  0  0  0  0  0  0  0  0  0  0  0
    0.6077    2.1376    0.5411 H   0  0  0  0  0  0  0  0  0  0  0  0
    2.0577    0.4521   -0.4536 H   0  0  0  0  0  0  0  0  0  0  0  0
    1.1890   -1.7616   -1.1728 H   0  0  0  0  0  0  0  0  0  0  0  0
   -1.2504   -2.2748   -0.8772 H   0  0  0  0  0  0  0  0  0  0  0  0
   -5.9868    3.2197    0.0485 S   0  0  0  0  0  0  0  0  0  0  0  0
   -5.1890    4.0832    1.1647 O   0  0  0  0  0  0  0  0  0  0  0  0
   -5.5456    1.8428    0.1085 O   0  0  0  0  0  0  0  0  0  0  0  0
   -7.3687    3.6347    0.1530 O   0  0  0  0  0  0  0  0  0  0  0  0
   -5.3713    3.8142   -1.3340 O   0  0  0  0  0  0  0  0  0  0  0  0
   -5.8561    4.6294   -1.5490 H   0  0  0  0  0  0  0  0  0  0  0  0
  1  2  1  0  0  0  0
  1  4  2  0  0  0  0
  2  3  1  0  0  0  0
  5  4  1  0  0  0  0
  5 10  1  0  0  0  0
  6  5  2  0  0  0  0
  7  8  2  0  0  0  0
  7  6  1  0  0  0  0
  8  1  1  0  0  0  0
 11  6  1  0  0  0  0
 12  7  1  0  0  0  0
 13  8  1  0  0  0  0
 14 16  2  0  0  0  0
 14 17  2  0  0  0  0
 14 15  1  0  0  0  0
 15  9  1  0  0  0  0
 18 14  1  0  0  0  0
 19 18  1  0  0  0  0
M  RAD  3   2   2   3   3   4   2
M  END
