Coordinates from ORCA-job PhN2+~HSO4-_B3LYPG-6-31G_dp-CH-Scan-d09-49-n800
 OpenBabel11261919183D

 19 18  0  0  0  0  0  0  0  0999 V2000
   -1.5986   -0.2827    0.0046 C   0  0  0  0  0  0  0  0  0  0  0  0
   -2.9562   -0.5525    0.1811 N   0  0  0  0  0  0  0  0  0  0  0  0
   -4.0497   -0.7129    0.3548 N   0  0  0  0  0  0  0  0  0  0  0  0
   -1.2419    0.9987    0.4525 C   0  0  0  0  0  0  0  0  0  0  0  0
    0.1552    1.1903    0.2434 C   0  0  0  0  0  0  0  0  0  0  0  0
    0.9969    0.2364   -0.3197 C   0  0  0  0  0  0  0  0  0  0  0  0
    0.5144   -1.0304   -0.7347 C   0  0  0  0  0  0  0  0  0  0  0  0
   -0.8218   -1.3220   -0.5772 C   0  0  0  0  0  0  0  0  0  0  0  0
   -4.3104    3.6735    1.3051 H   0  0  0  0  0  0  0  0  0  0  0  0
    0.6032    2.1403    0.5388 H   0  0  0  0  0  0  0  0  0  0  0  0
    2.0556    0.4547   -0.4519 H   0  0  0  0  0  0  0  0  0  0  0  0
    1.1895   -1.7607   -1.1691 H   0  0  0  0  0  0  0  0  0  0  0  0
   -1.2498   -2.2754   -0.8755 H   0  0  0  0  0  0  0  0  0  0  0  0
   -5.9843    3.2188    0.0494 S   0  0  0  0  0  0  0  0  0  0  0  0
   -5.1830    4.0805    1.1645 O   0  0  0  0  0  0  0  0  0  0  0  0
   -5.5453    1.8412    0.1082 O   0  0  0  0  0  0  0  0  0  0  0  0
   -7.3653    3.6362    0.1565 O   0  0  0  0  0  0  0  0  0  0  0  0
   -5.3702    3.8127   -1.3340 O   0  0  0  0  0  0  0  0  0  0  0  0
   -5.8541    4.6288   -1.5478 H   0  0  0  0  0  0  0  0  0  0  0  0
  1  2  1  0  0  0  0
  1  4  2  0  0  0  0
  2  3  1  0  0  0  0
  5  4  1  0  0  0  0
  5 10  1  0  0  0  0
  6  5  2  0  0  0  0
  7  8  2  0  0  0  0
  7  6  1  0  0  0  0
  8  1  1  0  0  0  0
 11  6  1  0  0  0  0
 12  7  1  0  0  0  0
 13  8  1  0  0  0  0
 14 16  2  0  0  0  0
 14 17  2  0  0  0  0
 14 15  1  0  0  0  0
 15  9  1  0  0  0  0
 18 14  1  0  0  0  0
 19 18  1  0  0  0  0
M  RAD  3   2   2   3   3   4   2
M  END
