Coordinates from ORCA-job PhN2+~HSO4-_B3LYPG-6-31G_dp-CH-Scan-d09-49-n800
 OpenBabel11261919183D

 19 18  0  0  0  0  0  0  0  0999 V2000
   -1.7171   -0.2544    0.8492 C   0  0  0  0  0  0  0  0  0  0  0  0
   -2.8487   -0.8727    1.3889 N   0  0  0  0  0  0  0  0  0  0  0  0
   -3.7055   -1.3874    1.8902 N   0  0  0  0  0  0  0  0  0  0  0  0
   -0.5981   -0.3883    1.6827 C   0  0  0  0  0  0  0  0  0  0  0  0
    0.5057    0.2949    1.0853 C   0  0  0  0  0  0  0  0  0  0  0  0
    0.4371    0.9794   -0.1227 C   0  0  0  0  0  0  0  0  0  0  0  0
   -0.7584    1.0232   -0.8878 C   0  0  0  0  0  0  0  0  0  0  0  0
   -1.8847    0.3874   -0.4094 C   0  0  0  0  0  0  0  0  0  0  0  0
   -3.1307    2.9843   -0.4800 H   0  0  0  0  0  0  0  0  0  0  0  0
    1.4661    0.2877    1.6027 H   0  0  0  0  0  0  0  0  0  0  0  0
    1.3183    1.4874   -0.5114 H   0  0  0  0  0  0  0  0  0  0  0  0
   -0.7740    1.5242   -1.8511 H   0  0  0  0  0  0  0  0  0  0  0  0
   -2.8209    0.3500   -0.9588 H   0  0  0  0  0  0  0  0  0  0  0  0
   -5.2337    2.5634   -0.5175 S   0  0  0  0  0  0  0  0  0  0  0  0
   -3.9340    3.5271   -0.5823 O   0  0  0  0  0  0  0  0  0  0  0  0
   -4.9330    1.4145    0.3129 O   0  0  0  0  0  0  0  0  0  0  0  0
   -6.3643    3.4396   -0.3129 O   0  0  0  0  0  0  0  0  0  0  0  0
   -5.2870    1.9830   -2.0370 O   0  0  0  0  0  0  0  0  0  0  0  0
   -5.7526    2.6320   -2.5923 H   0  0  0  0  0  0  0  0  0  0  0  0
  1  2  1  0  0  0  0
  1  4  2  0  0  0  0
  2  3  1  0  0  0  0
  5 10  1  0  0  0  0
  5  4  1  0  0  0  0
  6  5  2  0  0  0  0
  7  8  2  0  0  0  0
  7  6  1  0  0  0  0
  8  1  1  0  0  0  0
 11  6  1  0  0  0  0
 12  7  1  0  0  0  0
 13  8  1  0  0  0  0
 14 17  2  0  0  0  0
 14 16  2  0  0  0  0
 15 14  1  0  0  0  0
 15  9  1  0  0  0  0
 18 14  1  0  0  0  0
 19 18  1  0  0  0  0
M  RAD  3   2   2   3   3   4   2
M  END
