Coordinates from ORCA-job PhN2+~HSO4-_B3LYPG-6-31G_dp-CH-Scan-d09-49-n800
 OpenBabel11261919183D

 19 18  0  0  0  0  0  0  0  0999 V2000
   -1.7385   -0.2713    0.8410 C   0  0  0  0  0  0  0  0  0  0  0  0
   -2.8550   -0.9187    1.3784 N   0  0  0  0  0  0  0  0  0  0  0  0
   -3.6998   -1.4538    1.8783 N   0  0  0  0  0  0  0  0  0  0  0  0
   -0.6205   -0.3668    1.6809 C   0  0  0  0  0  0  0  0  0  0  0  0
    0.4640    0.3508    1.0874 C   0  0  0  0  0  0  0  0  0  0  0  0
    0.3793    1.0324   -0.1210 C   0  0  0  0  0  0  0  0  0  0  0  0
   -0.8121    1.0330   -0.8946 C   0  0  0  0  0  0  0  0  0  0  0  0
   -1.9191    0.3594   -0.4216 C   0  0  0  0  0  0  0  0  0  0  0  0
   -3.0465    2.8795   -0.5051 H   0  0  0  0  0  0  0  0  0  0  0  0
    1.4215    0.3751    1.6097 H   0  0  0  0  0  0  0  0  0  0  0  0
    1.2448    1.5700   -0.5049 H   0  0  0  0  0  0  0  0  0  0  0  0
   -0.8370    1.5268   -1.8614 H   0  0  0  0  0  0  0  0  0  0  0  0
   -2.8488    0.2864   -0.9785 H   0  0  0  0  0  0  0  0  0  0  0  0
   -5.1697    2.5712   -0.5020 S   0  0  0  0  0  0  0  0  0  0  0  0
   -3.8229    3.4630   -0.5986 O   0  0  0  0  0  0  0  0  0  0  0  0
   -4.9212    1.4193    0.3414 O   0  0  0  0  0  0  0  0  0  0  0  0
   -6.2500    3.5090   -0.2969 O   0  0  0  0  0  0  0  0  0  0  0  0
   -5.2746    1.9717   -2.0123 O   0  0  0  0  0  0  0  0  0  0  0  0
   -5.7095    2.6382   -2.5717 H   0  0  0  0  0  0  0  0  0  0  0  0
  1  2  1  0  0  0  0
  1  4  2  0  0  0  0
  2  3  1  0  0  0  0
  5 10  1  0  0  0  0
  5  4  1  0  0  0  0
  6  5  2  0  0  0  0
  7  8  2  0  0  0  0
  7  6  1  0  0  0  0
  8  1  1  0  0  0  0
 11  6  1  0  0  0  0
 12  7  1  0  0  0  0
 13  8  1  0  0  0  0
 14 17  2  0  0  0  0
 14 16  2  0  0  0  0
 15  9  1  0  0  0  0
 15 14  1  0  0  0  0
 18 14  1  0  0  0  0
 19 18  1  0  0  0  0
M  RAD  3   2   2   3   3   4   2
M  END
