Coordinates from ORCA-job PhN2+~HSO4-_B3LYPG-6-31G_dp-CH-Scan-d09-49-n800
 OpenBabel11261919183D

 19 18  0  0  0  0  0  0  0  0999 V2000
   -1.9827    0.3256   -0.0783 C   0  0  0  0  0  0  0  0  0  0  0  0
   -3.3746    0.1851   -0.0765 N   0  0  0  0  0  0  0  0  0  0  0  0
   -4.3913   -0.2928   -0.0930 N   0  0  0  0  0  0  0  0  0  0  0  0
   -1.3924    1.5422    0.2776 C   0  0  0  0  0  0  0  0  0  0  0  0
   -0.0013    1.6011    0.2906 C   0  0  0  0  0  0  0  0  0  0  0  0
    0.7599    0.4799   -0.0500 C   0  0  0  0  0  0  0  0  0  0  0  0
    0.1428   -0.7258   -0.4077 C   0  0  0  0  0  0  0  0  0  0  0  0
   -1.2421   -0.8203   -0.4222 C   0  0  0  0  0  0  0  0  0  0  0  0
   -2.0693    2.4229    0.5122 H   0  0  0  0  0  0  0  0  0  0  0  0
    0.4874    2.5303    0.5629 H   0  0  0  0  0  0  0  0  0  0  0  0
    1.8440    0.5426   -0.0398 H   0  0  0  0  0  0  0  0  0  0  0  0
    0.7411   -1.5911   -0.6724 H   0  0  0  0  0  0  0  0  0  0  0  0
   -1.7479   -1.7411   -0.6906 H   0  0  0  0  0  0  0  0  0  0  0  0
   -5.4181    2.7049    0.0451 S   0  0  0  0  0  0  0  0  0  0  0  0
   -3.9388    2.6211   -0.1390 O   0  0  0  0  0  0  0  0  0  0  0  0
   -5.9986    1.3446    0.2317 O   0  0  0  0  0  0  0  0  0  0  0  0
   -5.8885    3.7263    0.9849 O   0  0  0  0  0  0  0  0  0  0  0  0
   -5.9486    3.2126   -1.4401 O   0  0  0  0  0  0  0  0  0  0  0  0
   -6.5967    3.9074   -1.2467 H   0  0  0  0  0  0  0  0  0  0  0  0
  1  2  1  0  0  0  0
  1  4  2  0  0  0  0
  3  2  1  0  0  0  0
  4  5  1  0  0  0  0
  4  9  1  0  0  0  0
  5 10  1  0  0  0  0
  6 11  1  0  0  0  0
  6  5  2  0  0  0  0
  7  6  1  0  0  0  0
  8  7  2  0  0  0  0
  8  1  1  0  0  0  0
 12  7  1  0  0  0  0
 13  8  1  0  0  0  0
 14 16  2  0  0  0  0
 14 17  1  0  0  0  0
 15 14  2  0  0  0  0
 18 19  1  0  0  0  0
 18 14  1  0  0  0  0
M  RAD  3   2   2   3   3  17   2
M  END
