Coordinates from ORCA-job PhN2+~HSO4-_B3LYPG-6-31G_dp-CH-Scan-d09-49-n800
 OpenBabel11261919183D

 19 18  0  0  0  0  0  0  0  0999 V2000
   -1.9428   -0.1895   -0.0579 C   0  0  0  0  0  0  0  0  0  0  0  0
   -3.2602   -0.6185    0.0428 N   0  0  0  0  0  0  0  0  0  0  0  0
   -4.3278   -0.9337    0.1346 N   0  0  0  0  0  0  0  0  0  0  0  0
   -1.7463    1.1713    0.2401 C   0  0  0  0  0  0  0  0  0  0  0  0
   -0.3724    1.5054    0.1158 C   0  0  0  0  0  0  0  0  0  0  0  0
    0.6144    0.5943   -0.2503 C   0  0  0  0  0  0  0  0  0  0  0  0
    0.3076   -0.7578   -0.5307 C   0  0  0  0  0  0  0  0  0  0  0  0
   -0.9994   -1.1825   -0.4375 C   0  0  0  0  0  0  0  0  0  0  0  0
   -3.4709    2.7494    0.8131 H   0  0  0  0  0  0  0  0  0  0  0  0
   -0.0633    2.5300    0.3181 H   0  0  0  0  0  0  0  0  0  0  0  0
    1.6504    0.9187   -0.3267 H   0  0  0  0  0  0  0  0  0  0  0  0
    1.0907   -1.4526   -0.8155 H   0  0  0  0  0  0  0  0  0  0  0  0
   -1.2926   -2.2080   -0.6430 H   0  0  0  0  0  0  0  0  0  0  0  0
   -5.4840    3.0039    0.1149 S   0  0  0  0  0  0  0  0  0  0  0  0
   -4.2070    3.3877    0.9964 O   0  0  0  0  0  0  0  0  0  0  0  0
   -5.5660    1.5643   -0.0480 O   0  0  0  0  0  0  0  0  0  0  0  0
   -6.5822    3.8043    0.6178 O   0  0  0  0  0  0  0  0  0  0  0  0
   -5.0764    3.5699   -1.3606 O   0  0  0  0  0  0  0  0  0  0  0  0
   -5.2876    4.5186   -1.3745 H   0  0  0  0  0  0  0  0  0  0  0  0
  1  2  1  0  0  0  0
  1  4  2  0  0  0  0
  2  3  1  0  0  0  0
  5  4  1  0  0  0  0
  5 10  1  0  0  0  0
  6  5  2  0  0  0  0
  7  8  2  0  0  0  0
  7  6  1  0  0  0  0
  8  1  1  0  0  0  0
  9 15  1  0  0  0  0
 11  6  1  0  0  0  0
 12  7  1  0  0  0  0
 13  8  1  0  0  0  0
 14 17  2  0  0  0  0
 14 15  1  0  0  0  0
 16 14  2  0  0  0  0
 18 14  1  0  0  0  0
 19 18  1  0  0  0  0
M  RAD  3   2   2   3   3   4   2
M  END
