Coordinates from ORCA-job PhN2+~HSO4-_B3LYPG-6-31G_dp-CH-Scan-d09-49-n800
 OpenBabel11261919183D

 19 18  0  0  0  0  0  0  0  0999 V2000
   -1.7997   -0.2333   -0.0504 C   0  0  0  0  0  0  0  0  0  0  0  0
   -3.1372   -0.5999    0.0682 N   0  0  0  0  0  0  0  0  0  0  0  0
   -4.2197   -0.8547    0.1820 N   0  0  0  0  0  0  0  0  0  0  0  0
   -1.5492    1.1045    0.3003 C   0  0  0  0  0  0  0  0  0  0  0  0
   -0.1612    1.3812    0.1542 C   0  0  0  0  0  0  0  0  0  0  0  0
    0.7766    0.4462   -0.2734 C   0  0  0  0  0  0  0  0  0  0  0  0
    0.4068   -0.8811   -0.6011 C   0  0  0  0  0  0  0  0  0  0  0  0
   -0.9142   -1.2542   -0.4934 C   0  0  0  0  0  0  0  0  0  0  0  0
   -3.7890    3.1493    1.0445 H   0  0  0  0  0  0  0  0  0  0  0  0
    0.2004    2.3824    0.3894 H   0  0  0  0  0  0  0  0  0  0  0  0
    1.8241    0.7292   -0.3634 H   0  0  0  0  0  0  0  0  0  0  0  0
    1.1540   -1.5948   -0.9322 H   0  0  0  0  0  0  0  0  0  0  0  0
   -1.2569   -2.2572   -0.7320 H   0  0  0  0  0  0  0  0  0  0  0  0
   -5.7079    3.1017    0.0967 S   0  0  0  0  0  0  0  0  0  0  0  0
   -4.5919    3.7029    1.0940 O   0  0  0  0  0  0  0  0  0  0  0  0
   -5.5743    1.6613    0.0246 O   0  0  0  0  0  0  0  0  0  0  0  0
   -6.9420    3.7766    0.4386 O   0  0  0  0  0  0  0  0  0  0  0  0
   -5.2039    3.6522   -1.3501 O   0  0  0  0  0  0  0  0  0  0  0  0
   -5.5302    4.5629   -1.4478 H   0  0  0  0  0  0  0  0  0  0  0  0
  1  2  1  0  0  0  0
  1  4  2  0  0  0  0
  2  3  1  0  0  0  0
  5  4  1  0  0  0  0
  5 10  1  0  0  0  0
  6  5  2  0  0  0  0
  7  8  2  0  0  0  0
  7  6  1  0  0  0  0
  8  1  1  0  0  0  0
  9 15  1  0  0  0  0
 11  6  1  0  0  0  0
 12  7  1  0  0  0  0
 13  8  1  0  0  0  0
 14 17  2  0  0  0  0
 14 15  1  0  0  0  0
 16 14  2  0  0  0  0
 18 14  1  0  0  0  0
 19 18  1  0  0  0  0
M  RAD  3   2   2   3   3   4   2
M  END
