Coordinates from ORCA-job PhN2+~HSO4-_B3LYPG-6-31G_dp-CH-Scan-d09-49-n800
 OpenBabel11261919183D

 19 18  0  0  0  0  0  0  0  0999 V2000
   -1.6997   -0.2614   -0.0502 C   0  0  0  0  0  0  0  0  0  0  0  0
   -3.0508   -0.5797    0.0751 N   0  0  0  0  0  0  0  0  0  0  0  0
   -4.1433   -0.7858    0.1973 N   0  0  0  0  0  0  0  0  0  0  0  0
   -1.4088    1.0585    0.3323 C   0  0  0  0  0  0  0  0  0  0  0  0
   -0.0119    1.2919    0.1794 C   0  0  0  0  0  0  0  0  0  0  0  0
    0.8913    0.3386   -0.2803 C   0  0  0  0  0  0  0  0  0  0  0  0
    0.4762   -0.9684   -0.6376 C   0  0  0  0  0  0  0  0  0  0  0  0
   -0.8550   -1.3014   -0.5271 C   0  0  0  0  0  0  0  0  0  0  0  0
   -4.0102    3.4129    1.1533 H   0  0  0  0  0  0  0  0  0  0  0  0
    0.3856    2.2748    0.4357 H   0  0  0  0  0  0  0  0  0  0  0  0
    1.9468    0.5896   -0.3734 H   0  0  0  0  0  0  0  0  0  0  0  0
    1.1977   -1.6970   -0.9928 H   0  0  0  0  0  0  0  0  0  0  0  0
   -1.2327   -2.2867   -0.7866 H   0  0  0  0  0  0  0  0  0  0  0  0
   -5.8540    3.1695    0.0921 S   0  0  0  0  0  0  0  0  0  0  0  0
   -4.8507    3.9040    1.1272 O   0  0  0  0  0  0  0  0  0  0  0  0
   -5.5732    1.7497    0.0752 O   0  0  0  0  0  0  0  0  0  0  0  0
   -7.1615    3.7314    0.3542 O   0  0  0  0  0  0  0  0  0  0  0  0
   -5.3280    3.7314   -1.3410 O   0  0  0  0  0  0  0  0  0  0  0  0
   -5.7335    4.6036   -1.4839 H   0  0  0  0  0  0  0  0  0  0  0  0
  1  2  1  0  0  0  0
  1  4  2  0  0  0  0
  2  3  1  0  0  0  0
  5  4  1  0  0  0  0
  5 10  1  0  0  0  0
  6  5  2  0  0  0  0
  7  8  2  0  0  0  0
  7  6  1  0  0  0  0
  8  1  1  0  0  0  0
 11  6  1  0  0  0  0
 12  7  1  0  0  0  0
 13  8  1  0  0  0  0
 14 17  2  0  0  0  0
 14 15  1  0  0  0  0
 15  9  1  0  0  0  0
 16 14  2  0  0  0  0
 18 14  1  0  0  0  0
 19 18  1  0  0  0  0
M  RAD  3   2   2   3   3   4   2
M  END
