Coordinates from ORCA-job PhN2+~HSO4-_B3LYPG-6-31G_dp-CH-Scan-d09-49-n800
 OpenBabel11261919183D

 19 18  0  0  0  0  0  0  0  0999 V2000
   -2.0647   -0.0364   -0.3315 C   0  0  0  0  0  0  0  0  0  0  0  0
   -3.3832   -0.4099   -0.5417 N   0  0  0  0  0  0  0  0  0  0  0  0
   -4.4526   -0.6804   -0.7041 N   0  0  0  0  0  0  0  0  0  0  0  0
   -1.8342    1.3271   -0.0727 C   0  0  0  0  0  0  0  0  0  0  0  0
   -0.4649    1.6013    0.1228 C   0  0  0  0  0  0  0  0  0  0  0  0
    0.5235    0.6210    0.0618 C   0  0  0  0  0  0  0  0  0  0  0  0
    0.2058   -0.7268   -0.2058 C   0  0  0  0  0  0  0  0  0  0  0  0
   -1.1110   -1.0826   -0.4107 C   0  0  0  0  0  0  0  0  0  0  0  0
   -2.9188    2.4579    0.0394 H   0  0  0  0  0  0  0  0  0  0  0  0
   -0.1673    2.6257    0.3344 H   0  0  0  0  0  0  0  0  0  0  0  0
    1.5640    0.8922    0.2236 H   0  0  0  0  0  0  0  0  0  0  0  0
    0.9864   -1.4787   -0.2505 H   0  0  0  0  0  0  0  0  0  0  0  0
   -1.4075   -2.1056   -0.6204 H   0  0  0  0  0  0  0  0  0  0  0  0
   -5.1004    2.9623    0.3436 S   0  0  0  0  0  0  0  0  0  0  0  0
   -3.6132    3.3555    0.1485 O   0  0  0  0  0  0  0  0  0  0  0  0
   -5.2159    1.5287    0.6139 O   0  0  0  0  0  0  0  0  0  0  0  0
   -5.7779    3.9332    1.1916 O   0  0  0  0  0  0  0  0  0  0  0  0
   -5.7344    3.1373   -1.1676 O   0  0  0  0  0  0  0  0  0  0  0  0
   -6.0494    4.0534   -1.2257 H   0  0  0  0  0  0  0  0  0  0  0  0
  1  4  1  0  0  0  0
  2  1  1  0  0  0  0
  3  2  1  0  0  0  0
  4  5  2  0  0  0  0
  5 10  1  0  0  0  0
  6  5  1  0  0  0  0
  6 11  1  0  0  0  0
  7  6  2  0  0  0  0
  8  1  2  0  0  0  0
  8  7  1  0  0  0  0
  9 15  1  0  0  0  0
 12  7  1  0  0  0  0
 13  8  1  0  0  0  0
 14 16  2  0  0  0  0
 14 17  2  0  0  0  0
 15 14  1  0  0  0  0
 18 14  1  0  0  0  0
 19 18  1  0  0  0  0
M  RAD  3   2   2   3   3   4   2
M  END
