Coordinates from ORCA-job PhN2+~HSO4-_B3LYPG-6-31G_dp-CH-Scan-d09-49-n800
 OpenBabel11261919183D

 19 18  0  0  0  0  0  0  0  0999 V2000
   -1.6829   -0.2656   -0.0452 C   0  0  0  0  0  0  0  0  0  0  0  0
   -3.0357   -0.5756    0.0853 N   0  0  0  0  0  0  0  0  0  0  0  0
   -4.1289   -0.7736    0.2147 N   0  0  0  0  0  0  0  0  0  0  0  0
   -1.3827    1.0491    0.3470 C   0  0  0  0  0  0  0  0  0  0  0  0
    0.0151    1.2751    0.1882 C   0  0  0  0  0  0  0  0  0  0  0  0
    0.9099    0.3203   -0.2846 C   0  0  0  0  0  0  0  0  0  0  0  0
    0.4849   -0.9812   -0.6509 C   0  0  0  0  0  0  0  0  0  0  0  0
   -0.8477   -1.3070   -0.5358 C   0  0  0  0  0  0  0  0  0  0  0  0
   -4.0568    3.4645    1.1798 H   0  0  0  0  0  0  0  0  0  0  0  0
    0.4202    2.2533    0.4506 H   0  0  0  0  0  0  0  0  0  0  0  0
    1.9664    0.5656   -0.3815 H   0  0  0  0  0  0  0  0  0  0  0  0
    1.2001   -1.7110   -1.0162 H   0  0  0  0  0  0  0  0  0  0  0  0
   -1.2330   -2.2878   -0.8014 H   0  0  0  0  0  0  0  0  0  0  0  0
   -5.8764    3.1788    0.0878 S   0  0  0  0  0  0  0  0  0  0  0  0
   -4.9049    3.9403    1.1347 O   0  0  0  0  0  0  0  0  0  0  0  0
   -5.5652    1.7653    0.0849 O   0  0  0  0  0  0  0  0  0  0  0  0
   -7.1990    3.7151    0.3257 O   0  0  0  0  0  0  0  0  0  0  0  0
   -5.3387    3.7436   -1.3397 O   0  0  0  0  0  0  0  0  0  0  0  0
   -5.7602    4.6061   -1.4947 H   0  0  0  0  0  0  0  0  0  0  0  0
  1  2  1  0  0  0  0
  1  4  2  0  0  0  0
  2  3  1  0  0  0  0
  5  4  1  0  0  0  0
  5 10  1  0  0  0  0
  6  5  2  0  0  0  0
  7  8  2  0  0  0  0
  7  6  1  0  0  0  0
  8  1  1  0  0  0  0
 11  6  1  0  0  0  0
 12  7  1  0  0  0  0
 13  8  1  0  0  0  0
 14 17  2  0  0  0  0
 14 15  1  0  0  0  0
 15  9  1  0  0  0  0
 16 14  2  0  0  0  0
 18 14  1  0  0  0  0
 19 18  1  0  0  0  0
M  RAD  3   2   2   3   3   4   2
M  END
