Coordinates from ORCA-job PhN2+~HSO4-_B3LYPG-6-31G_dp-CH-Scan-d09-49-n800
 OpenBabel11261919183D

 19 18  0  0  0  0  0  0  0  0999 V2000
   -1.8145   -0.2285   -0.0500 C   0  0  0  0  0  0  0  0  0  0  0  0
   -3.1500   -0.6015    0.0675 N   0  0  0  0  0  0  0  0  0  0  0  0
   -4.2310   -0.8628    0.1806 N   0  0  0  0  0  0  0  0  0  0  0  0
   -1.5692    1.1115    0.2970 C   0  0  0  0  0  0  0  0  0  0  0  0
   -0.1825    1.3939    0.1518 C   0  0  0  0  0  0  0  0  0  0  0  0
    0.7598    0.4617   -0.2720 C   0  0  0  0  0  0  0  0  0  0  0  0
    0.3960   -0.8679   -0.5964 C   0  0  0  0  0  0  0  0  0  0  0  0
   -0.9236   -1.2463   -0.4892 C   0  0  0  0  0  0  0  0  0  0  0  0
   -3.7571    3.1113    1.0266 H   0  0  0  0  0  0  0  0  0  0  0  0
    0.1743    2.3973    0.3846 H   0  0  0  0  0  0  0  0  0  0  0  0
    1.8061    0.7490   -0.3615 H   0  0  0  0  0  0  0  0  0  0  0  0
    1.1464   -1.5795   -0.9247 H   0  0  0  0  0  0  0  0  0  0  0  0
   -1.2617   -2.2515   -0.7254 H   0  0  0  0  0  0  0  0  0  0  0  0
   -5.6856    3.0911    0.0977 S   0  0  0  0  0  0  0  0  0  0  0  0
   -4.5543    3.6731    1.0875 O   0  0  0  0  0  0  0  0  0  0  0  0
   -5.5733    1.6490    0.0189 O   0  0  0  0  0  0  0  0  0  0  0  0
   -6.9081    3.7812    0.4512 O   0  0  0  0  0  0  0  0  0  0  0  0
   -5.1861    3.6396   -1.3518 O   0  0  0  0  0  0  0  0  0  0  0  0
   -5.5011    4.5548   -1.4435 H   0  0  0  0  0  0  0  0  0  0  0  0
  1  2  1  0  0  0  0
  1  4  2  0  0  0  0
  2  3  1  0  0  0  0
  5  4  1  0  0  0  0
  5 10  1  0  0  0  0
  6  5  2  0  0  0  0
  7  8  2  0  0  0  0
  7  6  1  0  0  0  0
  8  1  1  0  0  0  0
  9 15  1  0  0  0  0
 11  6  1  0  0  0  0
 12  7  1  0  0  0  0
 13  8  1  0  0  0  0
 14 17  2  0  0  0  0
 14 15  1  0  0  0  0
 16 14  2  0  0  0  0
 18 14  1  0  0  0  0
 19 18  1  0  0  0  0
M  RAD  3   2   2   3   3   4   2
M  END
