Coordinates from ORCA-job PhN2+~HSO4-_B3LYPG-6-31G_dp-CH-Scan-d09-49-n800
 OpenBabel11261919183D

 19 18  0  0  0  0  0  0  0  0999 V2000
   -1.5409   -0.2851    0.0789 C   0  0  0  0  0  0  0  0  0  0  0  0
   -2.8956   -0.5261    0.3152 N   0  0  0  0  0  0  0  0  0  0  0  0
   -3.9825   -0.6610    0.5442 N   0  0  0  0  0  0  0  0  0  0  0  0
   -1.1198    0.9462    0.6026 C   0  0  0  0  0  0  0  0  0  0  0  0
    0.2692    1.1149    0.3284 C   0  0  0  0  0  0  0  0  0  0  0  0
    1.0465    0.1856   -0.3554 C   0  0  0  0  0  0  0  0  0  0  0  0
    0.5008   -1.0307   -0.8380 C   0  0  0  0  0  0  0  0  0  0  0  0
   -0.8331   -1.2971   -0.6255 C   0  0  0  0  0  0  0  0  0  0  0  0
   -4.5020    3.8039    1.3736 H   0  0  0  0  0  0  0  0  0  0  0  0
    0.7634    2.0260    0.6698 H   0  0  0  0  0  0  0  0  0  0  0  0
    2.1025    0.3841   -0.5326 H   0  0  0  0  0  0  0  0  0  0  0  0
    1.1268   -1.7428   -1.3663 H   0  0  0  0  0  0  0  0  0  0  0  0
   -1.3077   -2.2121   -0.9701 H   0  0  0  0  0  0  0  0  0  0  0  0
   -6.0436    3.2281    0.0040 S   0  0  0  0  0  0  0  0  0  0  0  0
   -5.3784    4.1631    1.1506 O   0  0  0  0  0  0  0  0  0  0  0  0
   -5.5277    1.8824    0.1339 O   0  0  0  0  0  0  0  0  0  0  0  0
   -7.4509    3.5627   -0.0009 O   0  0  0  0  0  0  0  0  0  0  0  0
   -5.3643    3.8268   -1.3461 O   0  0  0  0  0  0  0  0  0  0  0  0
   -5.8783    4.6067   -1.6176 H   0  0  0  0  0  0  0  0  0  0  0  0
  1  2  1  0  0  0  0
  1  4  2  0  0  0  0
  2  3  1  0  0  0  0
  5  4  1  0  0  0  0
  5 10  1  0  0  0  0
  6  5  2  0  0  0  0
  7  8  2  0  0  0  0
  7  6  1  0  0  0  0
  8  1  1  0  0  0  0
 11  6  1  0  0  0  0
 12  7  1  0  0  0  0
 13  8  1  0  0  0  0
 14 16  2  0  0  0  0
 14 15  1  0  0  0  0
 15  9  1  0  0  0  0
 17 14  2  0  0  0  0
 18 14  1  0  0  0  0
 19 18  1  0  0  0  0
M  RAD  3   2   2   3   3   4   2
M  END
