Coordinates from ORCA-job PhN2+~HSO4-_B3LYPG-6-31G_dp-CH-Scan-d09-49-n800
 OpenBabel11261919183D

 19 18  0  0  0  0  0  0  0  0999 V2000
   -2.0095   -0.1707   -0.0524 C   0  0  0  0  0  0  0  0  0  0  0  0
   -3.3157   -0.6301    0.0468 N   0  0  0  0  0  0  0  0  0  0  0  0
   -4.3749   -0.9709    0.1366 N   0  0  0  0  0  0  0  0  0  0  0  0
   -1.8361    1.1989    0.2221 C   0  0  0  0  0  0  0  0  0  0  0  0
   -0.4704    1.5590    0.1013 C   0  0  0  0  0  0  0  0  0  0  0  0
    0.5368    0.6613   -0.2429 C   0  0  0  0  0  0  0  0  0  0  0  0
    0.2575   -0.6998   -0.5018 C   0  0  0  0  0  0  0  0  0  0  0  0
   -1.0420   -1.1480   -0.4090 C   0  0  0  0  0  0  0  0  0  0  0  0
   -3.3278    2.5601    0.7054 H   0  0  0  0  0  0  0  0  0  0  0  0
   -0.1857    2.5931    0.2884 H   0  0  0  0  0  0  0  0  0  0  0  0
    1.5663    1.0052   -0.3178 H   0  0  0  0  0  0  0  0  0  0  0  0
    1.0550   -1.3846   -0.7701 H   0  0  0  0  0  0  0  0  0  0  0  0
   -1.3138   -2.1822   -0.5989 H   0  0  0  0  0  0  0  0  0  0  0  0
   -5.3664    2.9557    0.1127 S   0  0  0  0  0  0  0  0  0  0  0  0
   -4.0394    3.2417    0.9349 O   0  0  0  0  0  0  0  0  0  0  0  0
   -5.5262    1.5279   -0.1076 O   0  0  0  0  0  0  0  0  0  0  0  0
   -6.4125    3.7757    0.6934 O   0  0  0  0  0  0  0  0  0  0  0  0
   -5.0148    3.5646   -1.3637 O   0  0  0  0  0  0  0  0  0  0  0  0
   -5.1961    4.5186   -1.3286 H   0  0  0  0  0  0  0  0  0  0  0  0
  1  2  1  0  0  0  0
  1  4  2  0  0  0  0
  2  3  1  0  0  0  0
  5  4  1  0  0  0  0
  5 10  1  0  0  0  0
  6  5  2  0  0  0  0
  7  8  2  0  0  0  0
  7  6  1  0  0  0  0
  8  1  1  0  0  0  0
  9 15  1  0  0  0  0
 11  6  1  0  0  0  0
 12  7  1  0  0  0  0
 13  8  1  0  0  0  0
 14 17  2  0  0  0  0
 14 15  1  0  0  0  0
 16 14  2  0  0  0  0
 18 19  1  0  0  0  0
 18 14  1  0  0  0  0
M  RAD  3   2   2   3   3   4   2
M  END
