Coordinates from ORCA-job PhN2+~HSO4-_B3LYPG-6-31G_dp-CH-Scan-d09-49-n800
 OpenBabel11261919183D

 19 18  0  0  0  0  0  0  0  0999 V2000
   -2.0634   -0.0382   -0.3286 C   0  0  0  0  0  0  0  0  0  0  0  0
   -3.3824   -0.4128   -0.5343 N   0  0  0  0  0  0  0  0  0  0  0  0
   -4.4520   -0.6847   -0.6935 N   0  0  0  0  0  0  0  0  0  0  0  0
   -1.8350    1.3253   -0.0673 C   0  0  0  0  0  0  0  0  0  0  0  0
   -0.4643    1.5991    0.1237 C   0  0  0  0  0  0  0  0  0  0  0  0
    0.5248    0.6201    0.0565 C   0  0  0  0  0  0  0  0  0  0  0  0
    0.2078   -0.7275   -0.2134 C   0  0  0  0  0  0  0  0  0  0  0  0
   -1.1093   -1.0840   -0.4142 C   0  0  0  0  0  0  0  0  0  0  0  0
   -2.9316    2.4714    0.0552 H   0  0  0  0  0  0  0  0  0  0  0  0
   -0.1659    2.6231    0.3369 H   0  0  0  0  0  0  0  0  0  0  0  0
    1.5657    0.8920    0.2153 H   0  0  0  0  0  0  0  0  0  0  0  0
    0.9890   -1.4784   -0.2630 H   0  0  0  0  0  0  0  0  0  0  0  0
   -1.4058   -2.1067   -0.6256 H   0  0  0  0  0  0  0  0  0  0  0  0
   -5.1083    2.9640    0.3466 S   0  0  0  0  0  0  0  0  0  0  0  0
   -3.6170    3.3600    0.1713 O   0  0  0  0  0  0  0  0  0  0  0  0
   -5.2249    1.5320    0.6211 O   0  0  0  0  0  0  0  0  0  0  0  0
   -5.7952    3.9398    1.1805 O   0  0  0  0  0  0  0  0  0  0  0  0
   -5.7195    3.1317   -1.1740 O   0  0  0  0  0  0  0  0  0  0  0  0
   -6.0285    4.0492   -1.2442 H   0  0  0  0  0  0  0  0  0  0  0  0
  1  4  1  0  0  0  0
  2  1  1  0  0  0  0
  3  2  1  0  0  0  0
  4  5  2  0  0  0  0
  5 10  1  0  0  0  0
  6  5  1  0  0  0  0
  6 11  1  0  0  0  0
  7  6  2  0  0  0  0
  8  1  2  0  0  0  0
  8  7  1  0  0  0  0
  9 15  1  0  0  0  0
 12  7  1  0  0  0  0
 13  8  1  0  0  0  0
 14 16  2  0  0  0  0
 14 17  2  0  0  0  0
 15 14  1  0  0  0  0
 18 14  1  0  0  0  0
 19 18  1  0  0  0  0
M  RAD  3   2   2   3   3   4   2
M  END
