Coordinates from ORCA-job PhN2+~HSO4-_B3LYPG-6-31G_dp-CH-Scan-d09-49-n800
 OpenBabel11261919183D

 19 18  0  0  0  0  0  0  0  0999 V2000
   -1.9831   -0.1772   -0.0594 C   0  0  0  0  0  0  0  0  0  0  0  0
   -3.2945   -0.6239    0.0359 N   0  0  0  0  0  0  0  0  0  0  0  0
   -4.3574   -0.9547    0.1221 N   0  0  0  0  0  0  0  0  0  0  0  0
   -1.8008    1.1883    0.2280 C   0  0  0  0  0  0  0  0  0  0  0  0
   -0.4313    1.5377    0.1099 C   0  0  0  0  0  0  0  0  0  0  0  0
    0.5683    0.6349   -0.2425 C   0  0  0  0  0  0  0  0  0  0  0  0
    0.2782   -0.7221   -0.5136 C   0  0  0  0  0  0  0  0  0  0  0  0
   -1.0247   -1.1606   -0.4249 C   0  0  0  0  0  0  0  0  0  0  0  0
   -3.3853    2.6402    0.7499 H   0  0  0  0  0  0  0  0  0  0  0  0
   -0.1367    2.5675    0.3059 H   0  0  0  0  0  0  0  0  0  0  0  0
    1.6008    0.9707   -0.3147 H   0  0  0  0  0  0  0  0  0  0  0  0
    1.0704   -1.4107   -0.7881 H   0  0  0  0  0  0  0  0  0  0  0  0
   -1.3050   -2.1909   -0.6240 H   0  0  0  0  0  0  0  0  0  0  0  0
   -5.4153    2.9774    0.1215 S   0  0  0  0  0  0  0  0  0  0  0  0
   -4.1024    3.3070    0.9597 O   0  0  0  0  0  0  0  0  0  0  0  0
   -5.5527    1.5423   -0.0558 O   0  0  0  0  0  0  0  0  0  0  0  0
   -6.4754    3.8042    0.6640 O   0  0  0  0  0  0  0  0  0  0  0  0
   -5.0424    3.5455   -1.3643 O   0  0  0  0  0  0  0  0  0  0  0  0
   -5.2266    4.4997   -1.3609 H   0  0  0  0  0  0  0  0  0  0  0  0
  1  2  1  0  0  0  0
  1  4  2  0  0  0  0
  2  3  1  0  0  0  0
  5  4  1  0  0  0  0
  5 10  1  0  0  0  0
  6  5  2  0  0  0  0
  7  8  2  0  0  0  0
  7  6  1  0  0  0  0
  8  1  1  0  0  0  0
  9 15  1  0  0  0  0
 11  6  1  0  0  0  0
 12  7  1  0  0  0  0
 13  8  1  0  0  0  0
 14 17  2  0  0  0  0
 14 15  1  0  0  0  0
 16 14  2  0  0  0  0
 18 19  1  0  0  0  0
 18 14  1  0  0  0  0
M  RAD  3   2   2   3   3   4   2
M  END
