Coordinates from ORCA-job PhN2+~HSO4-_B3LYPG-6-31G_dp-CH-Scan-d09-49-n800
 OpenBabel11261919183D

 19 18  0  0  0  0  0  0  0  0999 V2000
   -2.0063    0.3396   -0.0099 C   0  0  0  0  0  0  0  0  0  0  0  0
   -3.3977    0.1898    0.0483 N   0  0  0  0  0  0  0  0  0  0  0  0
   -4.3981   -0.3211    0.0762 N   0  0  0  0  0  0  0  0  0  0  0  0
   -1.4077    1.5412    0.3830 C   0  0  0  0  0  0  0  0  0  0  0  0
   -0.0168    1.6051    0.3341 C   0  0  0  0  0  0  0  0  0  0  0  0
    0.7337    0.5114   -0.1042 C   0  0  0  0  0  0  0  0  0  0  0  0
    0.1056   -0.6767   -0.4971 C   0  0  0  0  0  0  0  0  0  0  0  0
   -1.2785   -0.7800   -0.4489 C   0  0  0  0  0  0  0  0  0  0  0  0
   -1.9959    2.3231    0.6717 H   0  0  0  0  0  0  0  0  0  0  0  0
    0.4794    2.5220    0.6341 H   0  0  0  0  0  0  0  0  0  0  0  0
    1.8165    0.5825   -0.1437 H   0  0  0  0  0  0  0  0  0  0  0  0
    0.6936   -1.5224   -0.8379 H   0  0  0  0  0  0  0  0  0  0  0  0
   -1.7926   -1.6882   -0.7430 H   0  0  0  0  0  0  0  0  0  0  0  0
   -5.4125    2.6838    0.0290 S   0  0  0  0  0  0  0  0  0  0  0  0
   -3.9243    2.5658   -0.0586 O   0  0  0  0  0  0  0  0  0  0  0  0
   -6.0272    1.3492    0.2650 O   0  0  0  0  0  0  0  0  0  0  0  0
   -5.9093    3.7761    0.8700 O   0  0  0  0  0  0  0  0  0  0  0  0
   -5.8502    3.1013   -1.5140 O   0  0  0  0  0  0  0  0  0  0  0  0
   -6.4274    3.8727   -1.4054 H   0  0  0  0  0  0  0  0  0  0  0  0
  1  2  1  0  0  0  0
  1  4  2  0  0  0  0
  2  3  1  0  0  0  0
  4  9  1  0  0  0  0
  5  4  1  0  0  0  0
  5 10  1  0  0  0  0
  6  5  2  0  0  0  0
  7  8  2  0  0  0  0
  7  6  1  0  0  0  0
  8  1  1  0  0  0  0
 11  6  1  0  0  0  0
 12  7  1  0  0  0  0
 13  8  1  0  0  0  0
 14 16  2  0  0  0  0
 14 17  1  0  0  0  0
 15 14  2  0  0  0  0
 18 19  1  0  0  0  0
 18 14  1  0  0  0  0
M  RAD  3   2   2   3   3  17   2
M  END
