Coordinates from ORCA-job PhN2+~HSO4-_B3LYPG-6-31G_dp-CH-Scan-d09-49-n800
 OpenBabel11261919183D

 19 18  0  0  0  0  0  0  0  0999 V2000
   -1.6115   -0.2813   -0.0042 C   0  0  0  0  0  0  0  0  0  0  0  0
   -2.9685   -0.5577    0.1649 N   0  0  0  0  0  0  0  0  0  0  0  0
   -4.0624   -0.7241    0.3305 N   0  0  0  0  0  0  0  0  0  0  0  0
   -1.2649    1.0065    0.4335 C   0  0  0  0  0  0  0  0  0  0  0  0
    0.1325    1.2039    0.2323 C   0  0  0  0  0  0  0  0  0  0  0  0
    0.9836    0.2491   -0.3151 C   0  0  0  0  0  0  0  0  0  0  0  0
    0.5112   -1.0244   -0.7208 C   0  0  0  0  0  0  0  0  0  0  0  0
   -0.8245   -1.3219   -0.5699 C   0  0  0  0  0  0  0  0  0  0  0  0
   -4.2735    3.6472    1.2910 H   0  0  0  0  0  0  0  0  0  0  0  0
    0.5731    2.1593    0.5214 H   0  0  0  0  0  0  0  0  0  0  0  0
    2.0420    0.4721   -0.4418 H   0  0  0  0  0  0  0  0  0  0  0  0
    1.1934   -1.7552   -1.1431 H   0  0  0  0  0  0  0  0  0  0  0  0
   -1.2451   -2.2805   -0.8619 H   0  0  0  0  0  0  0  0  0  0  0  0
   -5.9679    3.2132    0.0555 S   0  0  0  0  0  0  0  0  0  0  0  0
   -5.1446    4.0620    1.1640 O   0  0  0  0  0  0  0  0  0  0  0  0
   -5.5449    1.8302    0.1050 O   0  0  0  0  0  0  0  0  0  0  0  0
   -7.3427    3.6463    0.1792 O   0  0  0  0  0  0  0  0  0  0  0  0
   -5.3623    3.8039   -1.3331 O   0  0  0  0  0  0  0  0  0  0  0  0
   -5.8385    4.6267   -1.5386 H   0  0  0  0  0  0  0  0  0  0  0  0
  1  2  1  0  0  0  0
  1  4  2  0  0  0  0
  2  3  1  0  0  0  0
  5  4  1  0  0  0  0
  5 10  1  0  0  0  0
  6  5  2  0  0  0  0
  7  8  2  0  0  0  0
  7  6  1  0  0  0  0
  8  1  1  0  0  0  0
 11  6  1  0  0  0  0
 12  7  1  0  0  0  0
 13  8  1  0  0  0  0
 14 16  2  0  0  0  0
 14 17  2  0  0  0  0
 14 15  1  0  0  0  0
 15  9  1  0  0  0  0
 18 14  1  0  0  0  0
 19 18  1  0  0  0  0
M  RAD  3   2   2   3   3   4   2
M  END
