Coordinates from ORCA-job PhN2+~HSO4-_B3LYPG-6-31G_dp-CH-Scan-d09-49-n800
 OpenBabel11261919183D

 19 18  0  0  0  0  0  0  0  0999 V2000
   -1.8019   -0.2327   -0.0504 C   0  0  0  0  0  0  0  0  0  0  0  0
   -3.1391   -0.6000    0.0679 N   0  0  0  0  0  0  0  0  0  0  0  0
   -4.2214   -0.8557    0.1822 N   0  0  0  0  0  0  0  0  0  0  0  0
   -1.5521    1.1055    0.3001 C   0  0  0  0  0  0  0  0  0  0  0  0
   -0.1643    1.3829    0.1541 C   0  0  0  0  0  0  0  0  0  0  0  0
    0.7742    0.4484   -0.2731 C   0  0  0  0  0  0  0  0  0  0  0  0
    0.4052   -0.8791   -0.6006 C   0  0  0  0  0  0  0  0  0  0  0  0
   -0.9156   -1.2530   -0.4931 C   0  0  0  0  0  0  0  0  0  0  0  0
   -3.7842    3.1443    1.0420 H   0  0  0  0  0  0  0  0  0  0  0  0
    0.1966    2.3844    0.3892 H   0  0  0  0  0  0  0  0  0  0  0  0
    1.8215    0.7320   -0.3629 H   0  0  0  0  0  0  0  0  0  0  0  0
    1.1528   -1.5925   -0.9314 H   0  0  0  0  0  0  0  0  0  0  0  0
   -1.2577   -2.2563   -0.7316 H   0  0  0  0  0  0  0  0  0  0  0  0
   -5.7045    3.1001    0.0969 S   0  0  0  0  0  0  0  0  0  0  0  0
   -4.5863    3.6990    1.0929 O   0  0  0  0  0  0  0  0  0  0  0  0
   -5.5738    1.6594    0.0242 O   0  0  0  0  0  0  0  0  0  0  0  0
   -6.9370    3.7772    0.4404 O   0  0  0  0  0  0  0  0  0  0  0  0
   -5.2014    3.6500   -1.3505 O   0  0  0  0  0  0  0  0  0  0  0  0
   -5.5263    4.5613   -1.4476 H   0  0  0  0  0  0  0  0  0  0  0  0
  1  2  1  0  0  0  0
  1  4  2  0  0  0  0
  2  3  1  0  0  0  0
  5  4  1  0  0  0  0
  5 10  1  0  0  0  0
  6  5  2  0  0  0  0
  7  8  2  0  0  0  0
  7  6  1  0  0  0  0
  8  1  1  0  0  0  0
  9 15  1  0  0  0  0
 11  6  1  0  0  0  0
 12  7  1  0  0  0  0
 13  8  1  0  0  0  0
 14 17  2  0  0  0  0
 14 15  1  0  0  0  0
 16 14  2  0  0  0  0
 18 14  1  0  0  0  0
 19 18  1  0  0  0  0
M  RAD  3   2   2   3   3   4   2
M  END
