Coordinates from ORCA-job PhN2+~HSO4-_B3LYPG-6-31G_dp-CH-Scan-d09-49-n800
 OpenBabel11261919183D

 19 18  0  0  0  0  0  0  0  0999 V2000
   -1.7238   -0.2551   -0.0540 C   0  0  0  0  0  0  0  0  0  0  0  0
   -3.0720   -0.5853    0.0663 N   0  0  0  0  0  0  0  0  0  0  0  0
   -4.1625   -0.8030    0.1847 N   0  0  0  0  0  0  0  0  0  0  0  0
   -1.4442    1.0704    0.3185 C   0  0  0  0  0  0  0  0  0  0  0  0
   -0.0490    1.3144    0.1708 C   0  0  0  0  0  0  0  0  0  0  0  0
    0.8643    0.3645   -0.2760 C   0  0  0  0  0  0  0  0  0  0  0  0
    0.4617   -0.9486   -0.6243 C   0  0  0  0  0  0  0  0  0  0  0  0
   -0.8674   -1.2916   -0.5176 C   0  0  0  0  0  0  0  0  0  0  0  0
   -3.9501    3.3452    1.1209 H   0  0  0  0  0  0  0  0  0  0  0  0
    0.3388    2.3026    0.4208 H   0  0  0  0  0  0  0  0  0  0  0  0
    1.9182    0.6234   -0.3659 H   0  0  0  0  0  0  0  0  0  0  0  0
    1.1907   -1.6744   -0.9697 H   0  0  0  0  0  0  0  0  0  0  0  0
   -1.2356   -2.2821   -0.7707 H   0  0  0  0  0  0  0  0  0  0  0  0
   -5.8206    3.1549    0.0958 S   0  0  0  0  0  0  0  0  0  0  0  0
   -4.7806    3.8547    1.1171 O   0  0  0  0  0  0  0  0  0  0  0  0
   -5.5794    1.7279    0.0635 O   0  0  0  0  0  0  0  0  0  0  0  0
   -7.1081    3.7491    0.3846 O   0  0  0  0  0  0  0  0  0  0  0  0
   -5.3057    3.7124   -1.3434 O   0  0  0  0  0  0  0  0  0  0  0  0
   -5.6904    4.5960   -1.4728 H   0  0  0  0  0  0  0  0  0  0  0  0
  1  2  1  0  0  0  0
  1  4  2  0  0  0  0
  2  3  1  0  0  0  0
  5  4  1  0  0  0  0
  5 10  1  0  0  0  0
  6  5  2  0  0  0  0
  7  8  2  0  0  0  0
  7  6  1  0  0  0  0
  8  1  1  0  0  0  0
 11  6  1  0  0  0  0
 12  7  1  0  0  0  0
 13  8  1  0  0  0  0
 14 17  2  0  0  0  0
 14 15  1  0  0  0  0
 15  9  1  0  0  0  0
 16 14  2  0  0  0  0
 18 14  1  0  0  0  0
 19 18  1  0  0  0  0
M  RAD  3   2   2   3   3   4   2
M  END
