Coordinates from ORCA-job PhN2+~HSO4-_B3LYPG-6-31G_dp-CH-Scan-d09-49-n800
 OpenBabel11261919183D

 19 18  0  0  0  0  0  0  0  0999 V2000
   -2.0136    0.0908   -0.4130 C   0  0  0  0  0  0  0  0  0  0  0  0
   -3.3519   -0.1124   -0.7281 N   0  0  0  0  0  0  0  0  0  0  0  0
   -4.4685   -0.0341   -0.8270 N   0  0  0  0  0  0  0  0  0  0  0  0
   -1.6189    1.4032   -0.1134 C   0  0  0  0  0  0  0  0  0  0  0  0
   -0.2741    1.5817    0.2067 C   0  0  0  0  0  0  0  0  0  0  0  0
    0.6081    0.4978    0.2246 C   0  0  0  0  0  0  0  0  0  0  0  0
    0.1736   -0.7992   -0.0897 C   0  0  0  0  0  0  0  0  0  0  0  0
   -1.1535   -1.0212   -0.4247 C   0  0  0  0  0  0  0  0  0  0  0  0
   -2.4837    2.3380   -0.1841 H   0  0  0  0  0  0  0  0  0  0  0  0
    0.0843    2.5777    0.4455 H   0  0  0  0  0  0  0  0  0  0  0  0
    1.6505    0.6596    0.4829 H   0  0  0  0  0  0  0  0  0  0  0  0
    0.8715   -1.6293   -0.0745 H   0  0  0  0  0  0  0  0  0  0  0  0
   -1.5256   -2.0083   -0.6758 H   0  0  0  0  0  0  0  0  0  0  0  0
   -5.0477    3.0121    0.1672 S   0  0  0  0  0  0  0  0  0  0  0  0
   -3.7722    3.3328   -0.5337 O   0  0  0  0  0  0  0  0  0  0  0  0
   -5.0719    1.5828    0.6300 O   0  0  0  0  0  0  0  0  0  0  0  0
   -5.5092    3.9662    1.1786 O   0  0  0  0  0  0  0  0  0  0  0  0
   -6.1527    3.0925   -1.0641 O   0  0  0  0  0  0  0  0  0  0  0  0
   -6.9602    3.4447   -0.6584 H   0  0  0  0  0  0  0  0  0  0  0  0
  1  4  1  0  0  0  0
  2  1  1  0  0  0  0
  3  2  1  0  0  0  0
  4  5  2  0  0  0  0
  5  6  1  0  0  0  0
  5 10  1  0  0  0  0
  6 11  1  0  0  0  0
  7 12  1  0  0  0  0
  7  6  2  0  0  0  0
  8  1  2  0  0  0  0
  8  7  1  0  0  0  0
  9  4  1  0  0  0  0
 13  8  1  0  0  0  0
 14 16  2  0  0  0  0
 14 17  1  0  0  0  0
 15 14  2  0  0  0  0
 18 19  1  0  0  0  0
 18 14  1  0  0  0  0
M  RAD  3   2   2   3   3  17   2
M  END
