Coordinates from ORCA-job PhN2+~HSO4-_B3LYPG-6-31G_dp-CH-Scan-d09-49-n800
 OpenBabel11261919183D

 19 18  0  0  0  0  0  0  0  0999 V2000
   -1.6778   -0.2674   -0.0424 C   0  0  0  0  0  0  0  0  0  0  0  0
   -3.0307   -0.5756    0.0916 N   0  0  0  0  0  0  0  0  0  0  0  0
   -4.1245   -0.7713    0.2201 N   0  0  0  0  0  0  0  0  0  0  0  0
   -1.3749    1.0460    0.3522 C   0  0  0  0  0  0  0  0  0  0  0  0
    0.0229    1.2703    0.1904 C   0  0  0  0  0  0  0  0  0  0  0  0
    0.9150    0.3154   -0.2872 C   0  0  0  0  0  0  0  0  0  0  0  0
    0.4872   -0.9846   -0.6556 C   0  0  0  0  0  0  0  0  0  0  0  0
   -0.8456   -1.3089   -0.5377 C   0  0  0  0  0  0  0  0  0  0  0  0
   -4.0727    3.4796    1.1899 H   0  0  0  0  0  0  0  0  0  0  0  0
    0.4302    2.2472    0.4542 H   0  0  0  0  0  0  0  0  0  0  0  0
    1.9716    0.5594   -0.3865 H   0  0  0  0  0  0  0  0  0  0  0  0
    1.2003   -1.7146   -1.0245 H   0  0  0  0  0  0  0  0  0  0  0  0
   -1.2329   -2.2885   -0.8045 H   0  0  0  0  0  0  0  0  0  0  0  0
   -5.8832    3.1816    0.0857 S   0  0  0  0  0  0  0  0  0  0  0  0
   -4.9234    3.9505    1.1384 O   0  0  0  0  0  0  0  0  0  0  0  0
   -5.5626    1.7704    0.0869 O   0  0  0  0  0  0  0  0  0  0  0  0
   -7.2107    3.7098    0.3139 O   0  0  0  0  0  0  0  0  0  0  0  0
   -5.3390    3.7482   -1.3386 O   0  0  0  0  0  0  0  0  0  0  0  0
   -5.7647    4.6080   -1.4975 H   0  0  0  0  0  0  0  0  0  0  0  0
  1  2  1  0  0  0  0
  1  4  2  0  0  0  0
  2  3  1  0  0  0  0
  5  4  1  0  0  0  0
  5 10  1  0  0  0  0
  6  5  2  0  0  0  0
  7  8  2  0  0  0  0
  7  6  1  0  0  0  0
  8  1  1  0  0  0  0
 11  6  1  0  0  0  0
 12  7  1  0  0  0  0
 13  8  1  0  0  0  0
 14 16  2  0  0  0  0
 14 17  2  0  0  0  0
 14 15  1  0  0  0  0
 15  9  1  0  0  0  0
 18 14  1  0  0  0  0
 19 18  1  0  0  0  0
M  RAD  3   2   2   3   3   4   2
M  END
