Coordinates from ORCA-job PhN2+~HSO4-_B3LYPG-6-31G_dp-CH-Scan-d09-49-n800
 OpenBabel11261919183D

 19 18  0  0  0  0  0  0  0  0999 V2000
   -1.6458   -0.2749   -0.0271 C   0  0  0  0  0  0  0  0  0  0  0  0
   -3.0014   -0.5671    0.1208 N   0  0  0  0  0  0  0  0  0  0  0  0
   -4.0957   -0.7481    0.2667 N   0  0  0  0  0  0  0  0  0  0  0  0
   -1.3229    1.0268    0.3884 C   0  0  0  0  0  0  0  0  0  0  0  0
    0.0754    1.2376    0.2104 C   0  0  0  0  0  0  0  0  0  0  0  0
    0.9491    0.2819   -0.2985 C   0  0  0  0  0  0  0  0  0  0  0  0
    0.5006   -1.0059   -0.6852 C   0  0  0  0  0  0  0  0  0  0  0  0
   -0.8341   -1.3169   -0.5541 C   0  0  0  0  0  0  0  0  0  0  0  0
   -4.1657    3.5720    1.2364 H   0  0  0  0  0  0  0  0  0  0  0  0
    0.4982    2.2046    0.4869 H   0  0  0  0  0  0  0  0  0  0  0  0
    2.0070    0.5156   -0.4088 H   0  0  0  0  0  0  0  0  0  0  0  0
    1.1999   -1.7369   -1.0780 H   0  0  0  0  0  0  0  0  0  0  0  0
   -1.2370   -2.2868   -0.8335 H   0  0  0  0  0  0  0  0  0  0  0  0
   -5.9243    3.1972    0.0736 S   0  0  0  0  0  0  0  0  0  0  0  0
   -5.0302    4.0108    1.1518 O   0  0  0  0  0  0  0  0  0  0  0  0
   -5.5490    1.7998    0.0988 O   0  0  0  0  0  0  0  0  0  0  0  0
   -7.2776    3.6760    0.2534 O   0  0  0  0  0  0  0  0  0  0  0  0
   -5.3542    3.7745   -1.3359 O   0  0  0  0  0  0  0  0  0  0  0  0
   -5.8079    4.6153   -1.5173 H   0  0  0  0  0  0  0  0  0  0  0  0
  1  2  1  0  0  0  0
  1  4  2  0  0  0  0
  2  3  1  0  0  0  0
  5  4  1  0  0  0  0
  5 10  1  0  0  0  0
  6  5  2  0  0  0  0
  7  8  2  0  0  0  0
  7  6  1  0  0  0  0
  8  1  1  0  0  0  0
 11  6  1  0  0  0  0
 12  7  1  0  0  0  0
 13  8  1  0  0  0  0
 14 16  2  0  0  0  0
 14 17  2  0  0  0  0
 14 15  1  0  0  0  0
 15  9  1  0  0  0  0
 18 14  1  0  0  0  0
 19 18  1  0  0  0  0
M  RAD  3   2   2   3   3   4   2
M  END
