Coordinates from ORCA-job PhN2+~HSO4-_B3LYPG-6-31G_dp-CH-Scan-d09-49-n800
 OpenBabel11261919183D

 19 18  0  0  0  0  0  0  0  0999 V2000
   -1.6248   -0.2788   -0.0139 C   0  0  0  0  0  0  0  0  0  0  0  0
   -2.9813   -0.5615    0.1465 N   0  0  0  0  0  0  0  0  0  0  0  0
   -4.0755   -0.7340    0.3037 N   0  0  0  0  0  0  0  0  0  0  0  0
   -1.2877    1.0150    0.4139 C   0  0  0  0  0  0  0  0  0  0  0  0
    0.1102    1.2174    0.2222 C   0  0  0  0  0  0  0  0  0  0  0  0
    0.9705    0.2615   -0.3088 C   0  0  0  0  0  0  0  0  0  0  0  0
    0.5077   -1.0181   -0.7059 C   0  0  0  0  0  0  0  0  0  0  0  0
   -0.8277   -1.3207   -0.5631 C   0  0  0  0  0  0  0  0  0  0  0  0
   -4.2325    3.6196    1.2718 H   0  0  0  0  0  0  0  0  0  0  0  0
    0.5437    2.1777    0.5056 H   0  0  0  0  0  0  0  0  0  0  0  0
    2.0288    0.4886   -0.4288 H   0  0  0  0  0  0  0  0  0  0  0  0
    1.1968   -1.7495   -1.1156 H   0  0  0  0  0  0  0  0  0  0  0  0
   -1.2412   -2.2841   -0.8494 H   0  0  0  0  0  0  0  0  0  0  0  0
   -5.9513    3.2071    0.0628 S   0  0  0  0  0  0  0  0  0  0  0  0
   -5.1017    4.0427    1.1610 O   0  0  0  0  0  0  0  0  0  0  0  0
   -5.5458    1.8185    0.1021 O   0  0  0  0  0  0  0  0  0  0  0  0
   -7.3186    3.6571    0.2076 O   0  0  0  0  0  0  0  0  0  0  0  0
   -5.3586    3.7936   -1.3333 O   0  0  0  0  0  0  0  0  0  0  0  0
   -5.8266    4.6233   -1.5293 H   0  0  0  0  0  0  0  0  0  0  0  0
  1  2  1  0  0  0  0
  1  4  2  0  0  0  0
  2  3  1  0  0  0  0
  5  4  1  0  0  0  0
  5 10  1  0  0  0  0
  6  5  2  0  0  0  0
  7  8  2  0  0  0  0
  7  6  1  0  0  0  0
  8  1  1  0  0  0  0
 11  6  1  0  0  0  0
 12  7  1  0  0  0  0
 13  8  1  0  0  0  0
 14 16  2  0  0  0  0
 14 17  2  0  0  0  0
 14 15  1  0  0  0  0
 15  9  1  0  0  0  0
 18 14  1  0  0  0  0
 19 18  1  0  0  0  0
M  RAD  3   2   2   3   3   4   2
M  END
