Coordinates from ORCA-job PhN2+~HSO4-_B3LYPG-6-31G_dp-CH-Scan-d09-49-n800
 OpenBabel11261919183D

 19 18  0  0  0  0  0  0  0  0999 V2000
   -1.6920   -0.2292    0.8548 C   0  0  0  0  0  0  0  0  0  0  0  0
   -2.8446   -0.8071    1.3949 N   0  0  0  0  0  0  0  0  0  0  0  0
   -3.7185   -1.2921    1.8964 N   0  0  0  0  0  0  0  0  0  0  0  0
   -0.5791   -0.4031    1.6889 C   0  0  0  0  0  0  0  0  0  0  0  0
    0.5505    0.2329    1.0892 C   0  0  0  0  0  0  0  0  0  0  0  0
    0.5094    0.9111   -0.1238 C   0  0  0  0  0  0  0  0  0  0  0  0
   -0.6841    1.0017   -0.8870 C   0  0  0  0  0  0  0  0  0  0  0  0
   -1.8352    0.4160   -0.4047 C   0  0  0  0  0  0  0  0  0  0  0  0
   -3.2413    3.1130   -0.4465 H   0  0  0  0  0  0  0  0  0  0  0  0
    1.5097    0.1916    1.6074 H   0  0  0  0  0  0  0  0  0  0  0  0
    1.4104    1.3798   -0.5163 H   0  0  0  0  0  0  0  0  0  0  0  0
   -0.6818    1.5040   -1.8495 H   0  0  0  0  0  0  0  0  0  0  0  0
   -2.7743    0.4198   -0.9501 H   0  0  0  0  0  0  0  0  0  0  0  0
   -5.3082    2.5502   -0.5315 S   0  0  0  0  0  0  0  0  0  0  0  0
   -4.0761    3.6021   -0.5600 O   0  0  0  0  0  0  0  0  0  0  0  0
   -4.9329    1.4055    0.2740 O   0  0  0  0  0  0  0  0  0  0  0  0
   -6.4979    3.3411   -0.3156 O   0  0  0  0  0  0  0  0  0  0  0  0
   -5.3099    2.0061   -2.0644 O   0  0  0  0  0  0  0  0  0  0  0  0
   -5.8197    2.6319   -2.6074 H   0  0  0  0  0  0  0  0  0  0  0  0
  1  2  1  0  0  0  0
  1  4  2  0  0  0  0
  2  3  1  0  0  0  0
  5 10  1  0  0  0  0
  5  4  1  0  0  0  0
  6  5  2  0  0  0  0
  7  8  2  0  0  0  0
  7  6  1  0  0  0  0
  8  1  1  0  0  0  0
 11  6  1  0  0  0  0
 12  7  1  0  0  0  0
 13  8  1  0  0  0  0
 14 17  2  0  0  0  0
 14 16  2  0  0  0  0
 15 14  1  0  0  0  0
 15  9  1  0  0  0  0
 18 14  1  0  0  0  0
 19 18  1  0  0  0  0
M  RAD  3   2   2   3   3   4   2
M  END
