Coordinates from ORCA-job PhN2+~HSO4-_B3LYPG-6-31G_dp-CH-Scan-d09-49-n800
 OpenBabel11261919183D

 19 18  0  0  0  0  0  0  0  0999 V2000
   -2.0496   -0.0928   -0.2365 C   0  0  0  0  0  0  0  0  0  0  0  0
   -3.3705   -0.5063   -0.3347 N   0  0  0  0  0  0  0  0  0  0  0  0
   -4.4409   -0.8121   -0.4092 N   0  0  0  0  0  0  0  0  0  0  0  0
   -1.8527    1.2737    0.0379 C   0  0  0  0  0  0  0  0  0  0  0  0
   -0.4735    1.5799    0.1160 C   0  0  0  0  0  0  0  0  0  0  0  0
    0.5355    0.6359   -0.0590 C   0  0  0  0  0  0  0  0  0  0  0  0
    0.2391   -0.7169   -0.3337 C   0  0  0  0  0  0  0  0  0  0  0  0
   -1.0783   -1.1104   -0.4289 C   0  0  0  0  0  0  0  0  0  0  0  0
   -3.0804    2.5407    0.3165 H   0  0  0  0  0  0  0  0  0  0  0  0
   -0.1814    2.6068    0.3269 H   0  0  0  0  0  0  0  0  0  0  0  0
    1.5778    0.9378    0.0162 H   0  0  0  0  0  0  0  0  0  0  0  0
    1.0365   -1.4399   -0.4689 H   0  0  0  0  0  0  0  0  0  0  0  0
   -1.3622   -2.1371   -0.6396 H   0  0  0  0  0  0  0  0  0  0  0  0
   -5.2323    2.9763    0.3151 S   0  0  0  0  0  0  0  0  0  0  0  0
   -3.7226    3.3498    0.5330 O   0  0  0  0  0  0  0  0  0  0  0  0
   -5.4318    1.5424    0.4829 O   0  0  0  0  0  0  0  0  0  0  0  0
   -6.0520    3.9490    1.0163 O   0  0  0  0  0  0  0  0  0  0  0  0
   -5.4440    3.2264   -1.2933 O   0  0  0  0  0  0  0  0  0  0  0  0
   -5.6322    4.1722   -1.4082 H   0  0  0  0  0  0  0  0  0  0  0  0
  1  4  2  0  0  0  0
  2  1  1  0  0  0  0
  3  2  1  0  0  0  0
  4  5  1  0  0  0  0
  5 10  1  0  0  0  0
  6 11  1  0  0  0  0
  6  5  2  0  0  0  0
  7  6  1  0  0  0  0
  8  7  2  0  0  0  0
  8  1  1  0  0  0  0
  9 15  1  0  0  0  0
 12  7  1  0  0  0  0
 13  8  1  0  0  0  0
 14 16  2  0  0  0  0
 14 15  1  0  0  0  0
 14 17  2  0  0  0  0
 18 14  1  0  0  0  0
 19 18  1  0  0  0  0
M  RAD  3   2   2   3   3   4   2
M  END
