Coordinates from ORCA-job PhN2+~HSO4-_B3LYPG-6-31G_dp-CH-Scan-d09-49-n800
 OpenBabel11261919183D

 19 18  0  0  0  0  0  0  0  0999 V2000
   -1.9292   -0.1934   -0.0585 C   0  0  0  0  0  0  0  0  0  0  0  0
   -3.2487   -0.6165    0.0427 N   0  0  0  0  0  0  0  0  0  0  0  0
   -4.3179   -0.9259    0.1371 N   0  0  0  0  0  0  0  0  0  0  0  0
   -1.7277    1.1657    0.2433 C   0  0  0  0  0  0  0  0  0  0  0  0
   -0.3522    1.4940    0.1183 C   0  0  0  0  0  0  0  0  0  0  0  0
    0.6304    0.5800   -0.2517 C   0  0  0  0  0  0  0  0  0  0  0  0
    0.3178   -0.7702   -0.5357 C   0  0  0  0  0  0  0  0  0  0  0  0
   -0.9908   -1.1898   -0.4421 C   0  0  0  0  0  0  0  0  0  0  0  0
   -3.4982    2.7873    0.8320 H   0  0  0  0  0  0  0  0  0  0  0  0
   -0.0381    2.5167    0.3231 H   0  0  0  0  0  0  0  0  0  0  0  0
    1.6677    0.9004   -0.3285 H   0  0  0  0  0  0  0  0  0  0  0  0
    1.0978   -1.4673   -0.8234 H   0  0  0  0  0  0  0  0  0  0  0  0
   -1.2885   -2.2135   -0.6502 H   0  0  0  0  0  0  0  0  0  0  0  0
   -5.5066    3.0132    0.1137 S   0  0  0  0  0  0  0  0  0  0  0  0
   -4.2410    3.4166    1.0060 O   0  0  0  0  0  0  0  0  0  0  0  0
   -5.5696    1.5723   -0.0426 O   0  0  0  0  0  0  0  0  0  0  0  0
   -6.6170    3.8039    0.6047 O   0  0  0  0  0  0  0  0  0  0  0  0
   -5.0913    3.5778   -1.3596 O   0  0  0  0  0  0  0  0  0  0  0  0
   -5.3126    4.5241   -1.3798 H   0  0  0  0  0  0  0  0  0  0  0  0
  1  2  1  0  0  0  0
  1  4  2  0  0  0  0
  2  3  1  0  0  0  0
  5  4  1  0  0  0  0
  5 10  1  0  0  0  0
  6  5  2  0  0  0  0
  7  8  2  0  0  0  0
  7  6  1  0  0  0  0
  8  1  1  0  0  0  0
  9 15  1  0  0  0  0
 11  6  1  0  0  0  0
 12  7  1  0  0  0  0
 13  8  1  0  0  0  0
 14 17  2  0  0  0  0
 14 15  1  0  0  0  0
 16 14  2  0  0  0  0
 18 14  1  0  0  0  0
 19 18  1  0  0  0  0
M  RAD  3   2   2   3   3   4   2
M  END
