Coordinates from ORCA-job PhN2+~HSO4-_B3LYPG-6-31G_dp-CH-Scan-d09-49-n800
 OpenBabel11261919183D

 19 18  0  0  0  0  0  0  0  0999 V2000
   -1.6679   -0.2697   -0.0398 C   0  0  0  0  0  0  0  0  0  0  0  0
   -3.0219   -0.5728    0.0969 N   0  0  0  0  0  0  0  0  0  0  0  0
   -4.1157   -0.7641    0.2325 N   0  0  0  0  0  0  0  0  0  0  0  0
   -1.3593    1.0405    0.3604 C   0  0  0  0  0  0  0  0  0  0  0  0
    0.0389    1.2604    0.1953 C   0  0  0  0  0  0  0  0  0  0  0  0
    0.9260    0.3047   -0.2897 C   0  0  0  0  0  0  0  0  0  0  0  0
    0.4922   -0.9920   -0.6631 C   0  0  0  0  0  0  0  0  0  0  0  0
   -0.8413   -1.3120   -0.5427 C   0  0  0  0  0  0  0  0  0  0  0  0
   -4.1006    3.5080    1.2046 H   0  0  0  0  0  0  0  0  0  0  0  0
    0.4506    2.2346    0.4626 H   0  0  0  0  0  0  0  0  0  0  0  0
    1.9832    0.5453   -0.3910 H   0  0  0  0  0  0  0  0  0  0  0  0
    1.2016   -1.7228   -1.0378 H   0  0  0  0  0  0  0  0  0  0  0  0
   -1.2331   -2.2889   -0.8132 H   0  0  0  0  0  0  0  0  0  0  0  0
   -5.8964    3.1871    0.0830 S   0  0  0  0  0  0  0  0  0  0  0  0
   -4.9552    3.9703    1.1424 O   0  0  0  0  0  0  0  0  0  0  0  0
   -5.5591    1.7797    0.0916 O   0  0  0  0  0  0  0  0  0  0  0  0
   -7.2319    3.7006    0.2977 O   0  0  0  0  0  0  0  0  0  0  0  0
   -5.3457    3.7560   -1.3377 O   0  0  0  0  0  0  0  0  0  0  0  0
   -5.7800    4.6102   -1.5033 H   0  0  0  0  0  0  0  0  0  0  0  0
  1  2  1  0  0  0  0
  1  4  2  0  0  0  0
  2  3  1  0  0  0  0
  5  4  1  0  0  0  0
  5 10  1  0  0  0  0
  6  5  2  0  0  0  0
  7  8  2  0  0  0  0
  7  6  1  0  0  0  0
  8  1  1  0  0  0  0
 11  6  1  0  0  0  0
 12  7  1  0  0  0  0
 13  8  1  0  0  0  0
 14 16  2  0  0  0  0
 14 17  2  0  0  0  0
 14 15  1  0  0  0  0
 15  9  1  0  0  0  0
 18 14  1  0  0  0  0
 19 18  1  0  0  0  0
M  RAD  3   2   2   3   3   4   2
M  END
