Coordinates from ORCA-job PhN2+~HSO4-_B3LYPG-6-31G_dp-CH-Scan-d09-49-n800
 OpenBabel11261919183D

 19 18  0  0  0  0  0  0  0  0999 V2000
   -2.0576   -0.0744   -0.2607 C   0  0  0  0  0  0  0  0  0  0  0  0
   -3.3791   -0.4773   -0.3867 N   0  0  0  0  0  0  0  0  0  0  0  0
   -4.4501   -0.7744   -0.4829 N   0  0  0  0  0  0  0  0  0  0  0  0
   -1.8522    1.2904    0.0157 C   0  0  0  0  0  0  0  0  0  0  0  0
   -0.4735    1.5863    0.1220 C   0  0  0  0  0  0  0  0  0  0  0  0
    0.5308    0.6333   -0.0309 C   0  0  0  0  0  0  0  0  0  0  0  0
    0.2282   -0.7168   -0.3097 C   0  0  0  0  0  0  0  0  0  0  0  0
   -1.0905   -1.0993   -0.4316 C   0  0  0  0  0  0  0  0  0  0  0  0
   -3.0394    2.5264    0.2594 H   0  0  0  0  0  0  0  0  0  0  0  0
   -0.1787    2.6113    0.3374 H   0  0  0  0  0  0  0  0  0  0  0  0
    1.5738    0.9266    0.0653 H   0  0  0  0  0  0  0  0  0  0  0  0
    1.0217   -1.4472   -0.4274 H   0  0  0  0  0  0  0  0  0  0  0  0
   -1.3785   -2.1240   -0.6464 H   0  0  0  0  0  0  0  0  0  0  0  0
   -5.1993    2.9719    0.3335 S   0  0  0  0  0  0  0  0  0  0  0  0
   -3.6861    3.3555    0.4593 O   0  0  0  0  0  0  0  0  0  0  0  0
   -5.3822    1.5412    0.5510 O   0  0  0  0  0  0  0  0  0  0  0  0
   -5.9938    3.9570    1.0476 O   0  0  0  0  0  0  0  0  0  0  0  0
   -5.4991    3.1748   -1.2692 O   0  0  0  0  0  0  0  0  0  0  0  0
   -5.7100    4.1141   -1.3972 H   0  0  0  0  0  0  0  0  0  0  0  0
  1  4  2  0  0  0  0
  2  1  1  0  0  0  0
  3  2  1  0  0  0  0
  4  5  1  0  0  0  0
  5 10  1  0  0  0  0
  6 11  1  0  0  0  0
  6  5  2  0  0  0  0
  7  6  1  0  0  0  0
  8  7  2  0  0  0  0
  8  1  1  0  0  0  0
  9 15  1  0  0  0  0
 12  7  1  0  0  0  0
 13  8  1  0  0  0  0
 14 15  1  0  0  0  0
 14 16  2  0  0  0  0
 14 17  2  0  0  0  0
 18 14  1  0  0  0  0
 19 18  1  0  0  0  0
M  RAD  3   2   2   3   3   4   2
M  END
