Coordinates from ORCA-job PhN2+~HSO4-_B3LYPG-6-31G_dp-CH-Scan-d09-49-n800
 OpenBabel11261919183D

 19 18  0  0  0  0  0  0  0  0999 V2000
   -1.6813   -0.2661   -0.0445 C   0  0  0  0  0  0  0  0  0  0  0  0
   -3.0342   -0.5753    0.0869 N   0  0  0  0  0  0  0  0  0  0  0  0
   -4.1275   -0.7726    0.2170 N   0  0  0  0  0  0  0  0  0  0  0  0
   -1.3800    1.0480    0.3490 C   0  0  0  0  0  0  0  0  0  0  0  0
    0.0178    1.2733    0.1893 C   0  0  0  0  0  0  0  0  0  0  0  0
    0.9116    0.3185   -0.2852 C   0  0  0  0  0  0  0  0  0  0  0  0
    0.4856   -0.9823   -0.6526 C   0  0  0  0  0  0  0  0  0  0  0  0
   -0.8471   -1.3075   -0.5368 C   0  0  0  0  0  0  0  0  0  0  0  0
   -4.0618    3.4700    1.1828 H   0  0  0  0  0  0  0  0  0  0  0  0
    0.4236    2.2511    0.4525 H   0  0  0  0  0  0  0  0  0  0  0  0
    1.9683    0.5634   -0.3827 H   0  0  0  0  0  0  0  0  0  0  0  0
    1.2001   -1.7122   -1.0192 H   0  0  0  0  0  0  0  0  0  0  0  0
   -1.2332   -2.2877   -0.8032 H   0  0  0  0  0  0  0  0  0  0  0  0
   -5.8785    3.1796    0.0872 S   0  0  0  0  0  0  0  0  0  0  0  0
   -4.9107    3.9442    1.1355 O   0  0  0  0  0  0  0  0  0  0  0  0
   -5.5640    1.7669    0.0860 O   0  0  0  0  0  0  0  0  0  0  0  0
   -7.2027    3.7132    0.3221 O   0  0  0  0  0  0  0  0  0  0  0  0
   -5.3392    3.7446   -1.3395 O   0  0  0  0  0  0  0  0  0  0  0  0
   -5.7624    4.6061   -1.4961 H   0  0  0  0  0  0  0  0  0  0  0  0
  1  2  1  0  0  0  0
  1  4  2  0  0  0  0
  2  3  1  0  0  0  0
  5  4  1  0  0  0  0
  5 10  1  0  0  0  0
  6  5  2  0  0  0  0
  7  8  2  0  0  0  0
  7  6  1  0  0  0  0
  8  1  1  0  0  0  0
 11  6  1  0  0  0  0
 12  7  1  0  0  0  0
 13  8  1  0  0  0  0
 14 17  2  0  0  0  0
 14 15  1  0  0  0  0
 15  9  1  0  0  0  0
 16 14  2  0  0  0  0
 18 14  1  0  0  0  0
 19 18  1  0  0  0  0
M  RAD  3   2   2   3   3   4   2
M  END
