Coordinates from ORCA-job PhN2+~HSO4-_B3LYPG-6-31G_dp-CH-Scan-d09-49-n800
 OpenBabel11261919183D

 19 18  0  0  0  0  0  0  0  0999 V2000
   -1.6836   -0.2653   -0.0459 C   0  0  0  0  0  0  0  0  0  0  0  0
   -3.0364   -0.5755    0.0842 N   0  0  0  0  0  0  0  0  0  0  0  0
   -4.1297   -0.7742    0.2127 N   0  0  0  0  0  0  0  0  0  0  0  0
   -1.3838    1.0498    0.3452 C   0  0  0  0  0  0  0  0  0  0  0  0
    0.0140    1.2760    0.1872 C   0  0  0  0  0  0  0  0  0  0  0  0
    0.9093    0.3210   -0.2842 C   0  0  0  0  0  0  0  0  0  0  0  0
    0.4848   -0.9808   -0.6496 C   0  0  0  0  0  0  0  0  0  0  0  0
   -0.8479   -1.3069   -0.5350 C   0  0  0  0  0  0  0  0  0  0  0  0
   -4.0544    3.4614    1.1780 H   0  0  0  0  0  0  0  0  0  0  0  0
    0.4187    2.2546    0.4491 H   0  0  0  0  0  0  0  0  0  0  0  0
    1.9659    0.5665   -0.3807 H   0  0  0  0  0  0  0  0  0  0  0  0
    1.2003   -1.7109   -1.0138 H   0  0  0  0  0  0  0  0  0  0  0  0
   -1.2327   -2.2880   -0.8000 H   0  0  0  0  0  0  0  0  0  0  0  0
   -5.8757    3.1785    0.0883 S   0  0  0  0  0  0  0  0  0  0  0  0
   -4.9020    3.9383    1.1344 O   0  0  0  0  0  0  0  0  0  0  0  0
   -5.5664    1.7645    0.0838 O   0  0  0  0  0  0  0  0  0  0  0  0
   -7.1973    3.7164    0.3282 O   0  0  0  0  0  0  0  0  0  0  0  0
   -5.3391    3.7434   -1.3396 O   0  0  0  0  0  0  0  0  0  0  0  0
   -5.7595    4.6066   -1.4935 H   0  0  0  0  0  0  0  0  0  0  0  0
  1  2  1  0  0  0  0
  1  4  2  0  0  0  0
  2  3  1  0  0  0  0
  5  4  1  0  0  0  0
  5 10  1  0  0  0  0
  6  5  2  0  0  0  0
  7  8  2  0  0  0  0
  7  6  1  0  0  0  0
  8  1  1  0  0  0  0
 11  6  1  0  0  0  0
 12  7  1  0  0  0  0
 13  8  1  0  0  0  0
 14 17  2  0  0  0  0
 14 15  1  0  0  0  0
 15  9  1  0  0  0  0
 16 14  2  0  0  0  0
 18 14  1  0  0  0  0
 19 18  1  0  0  0  0
M  RAD  3   2   2   3   3   4   2
M  END
