Coordinates from ORCA-job PhN2+~HSO4-_B3LYPG-6-31G_dp-CH-Scan-d09-49-n800
 OpenBabel11261919183D

 19 18  0  0  0  0  0  0  0  0999 V2000
   -1.6725   -0.2684   -0.0413 C   0  0  0  0  0  0  0  0  0  0  0  0
   -3.0262   -0.5735    0.0937 N   0  0  0  0  0  0  0  0  0  0  0  0
   -4.1199   -0.7673    0.2261 N   0  0  0  0  0  0  0  0  0  0  0  0
   -1.3663    1.0431    0.3563 C   0  0  0  0  0  0  0  0  0  0  0  0
    0.0317    1.2650    0.1930 C   0  0  0  0  0  0  0  0  0  0  0  0
    0.9211    0.3094   -0.2883 C   0  0  0  0  0  0  0  0  0  0  0  0
    0.4900   -0.9887   -0.6594 C   0  0  0  0  0  0  0  0  0  0  0  0
   -0.8433   -1.3105   -0.5405 C   0  0  0  0  0  0  0  0  0  0  0  0
   -4.0877    3.4954    1.1975 H   0  0  0  0  0  0  0  0  0  0  0  0
    0.4414    2.2404    0.4588 H   0  0  0  0  0  0  0  0  0  0  0  0
    1.9781    0.5515   -0.3884 H   0  0  0  0  0  0  0  0  0  0  0  0
    1.2010   -1.7193   -1.0312 H   0  0  0  0  0  0  0  0  0  0  0  0
   -1.2332   -2.2886   -0.8093 H   0  0  0  0  0  0  0  0  0  0  0  0
   -5.8902    3.1844    0.0845 S   0  0  0  0  0  0  0  0  0  0  0  0
   -4.9403    3.9616    1.1404 O   0  0  0  0  0  0  0  0  0  0  0  0
   -5.5606    1.7751    0.0896 O   0  0  0  0  0  0  0  0  0  0  0  0
   -7.2220    3.7048    0.3060 O   0  0  0  0  0  0  0  0  0  0  0  0
   -5.3431    3.7520   -1.3382 O   0  0  0  0  0  0  0  0  0  0  0  0
   -5.7735    4.6088   -1.5007 H   0  0  0  0  0  0  0  0  0  0  0  0
  1  2  1  0  0  0  0
  1  4  2  0  0  0  0
  2  3  1  0  0  0  0
  5  4  1  0  0  0  0
  5 10  1  0  0  0  0
  6  5  2  0  0  0  0
  7  8  2  0  0  0  0
  7  6  1  0  0  0  0
  8  1  1  0  0  0  0
 11  6  1  0  0  0  0
 12  7  1  0  0  0  0
 13  8  1  0  0  0  0
 14 16  2  0  0  0  0
 14 17  2  0  0  0  0
 14 15  1  0  0  0  0
 15  9  1  0  0  0  0
 18 14  1  0  0  0  0
 19 18  1  0  0  0  0
M  RAD  3   2   2   3   3   4   2
M  END
