Coordinates from ORCA-job PhN2+~HSO4-_B3LYPG-6-31G_dp-CH-Scan-d09-49-n800
 OpenBabel11261919183D

 19 18  0  0  0  0  0  0  0  0999 V2000
   -1.9851   -0.1766   -0.0596 C   0  0  0  0  0  0  0  0  0  0  0  0
   -3.2962   -0.6242    0.0352 N   0  0  0  0  0  0  0  0  0  0  0  0
   -4.3589   -0.9557    0.1211 N   0  0  0  0  0  0  0  0  0  0  0  0
   -1.8035    1.1891    0.2272 C   0  0  0  0  0  0  0  0  0  0  0  0
   -0.4342    1.5393    0.1096 C   0  0  0  0  0  0  0  0  0  0  0  0
    0.5661    0.6369   -0.2420 C   0  0  0  0  0  0  0  0  0  0  0  0
    0.2768   -0.7203   -0.5126 C   0  0  0  0  0  0  0  0  0  0  0  0
   -1.0260   -1.1595   -0.4242 C   0  0  0  0  0  0  0  0  0  0  0  0
   -3.3808    2.6347    0.7464 H   0  0  0  0  0  0  0  0  0  0  0  0
   -0.1403    2.5694    0.3053 H   0  0  0  0  0  0  0  0  0  0  0  0
    1.5984    0.9732   -0.3138 H   0  0  0  0  0  0  0  0  0  0  0  0
    1.0694   -1.4086   -0.7864 H   0  0  0  0  0  0  0  0  0  0  0  0
   -1.3056   -2.1900   -0.6230 H   0  0  0  0  0  0  0  0  0  0  0  0
   -5.4118    2.9761    0.1220 S   0  0  0  0  0  0  0  0  0  0  0  0
   -4.0969    3.3031    0.9575 O   0  0  0  0  0  0  0  0  0  0  0  0
   -5.5520    1.5413   -0.0558 O   0  0  0  0  0  0  0  0  0  0  0  0
   -6.4698    3.8043    0.6667 O   0  0  0  0  0  0  0  0  0  0  0  0
   -5.0411    3.5443   -1.3645 O   0  0  0  0  0  0  0  0  0  0  0  0
   -5.2241    4.4987   -1.3603 H   0  0  0  0  0  0  0  0  0  0  0  0
  1  2  1  0  0  0  0
  1  4  2  0  0  0  0
  2  3  1  0  0  0  0
  5  4  1  0  0  0  0
  5 10  1  0  0  0  0
  6  5  2  0  0  0  0
  7  8  2  0  0  0  0
  7  6  1  0  0  0  0
  8  1  1  0  0  0  0
  9 15  1  0  0  0  0
 11  6  1  0  0  0  0
 12  7  1  0  0  0  0
 13  8  1  0  0  0  0
 14 17  2  0  0  0  0
 14 15  1  0  0  0  0
 16 14  2  0  0  0  0
 18 19  1  0  0  0  0
 18 14  1  0  0  0  0
M  RAD  3   2   2   3   3   4   2
M  END
