Coordinates from ORCA-job PhN2+~HSO4-_B3LYPG-6-31G_dp-CH-Scan-d09-49-n800
 OpenBabel11261919183D

 19 18  0  0  0  0  0  0  0  0999 V2000
   -1.9271   -0.1941   -0.0584 C   0  0  0  0  0  0  0  0  0  0  0  0
   -3.2470   -0.6163    0.0431 N   0  0  0  0  0  0  0  0  0  0  0  0
   -4.3164   -0.9248    0.1372 N   0  0  0  0  0  0  0  0  0  0  0  0
   -1.7250    1.1648    0.2441 C   0  0  0  0  0  0  0  0  0  0  0  0
   -0.3493    1.4923    0.1187 C   0  0  0  0  0  0  0  0  0  0  0  0
    0.6327    0.5779   -0.2521 C   0  0  0  0  0  0  0  0  0  0  0  0
    0.3192   -0.7720   -0.5366 C   0  0  0  0  0  0  0  0  0  0  0  0
   -0.9895   -1.1909   -0.4428 C   0  0  0  0  0  0  0  0  0  0  0  0
   -3.5023    2.7933    0.8353 H   0  0  0  0  0  0  0  0  0  0  0  0
   -0.0344    2.5147    0.3239 H   0  0  0  0  0  0  0  0  0  0  0  0
    1.6701    0.8977   -0.3291 H   0  0  0  0  0  0  0  0  0  0  0  0
    1.0988   -1.4694   -0.8249 H   0  0  0  0  0  0  0  0  0  0  0  0
   -1.2880   -2.2144   -0.6512 H   0  0  0  0  0  0  0  0  0  0  0  0
   -5.5099    3.0146    0.1134 S   0  0  0  0  0  0  0  0  0  0  0  0
   -4.2463    3.4211    1.0077 O   0  0  0  0  0  0  0  0  0  0  0  0
   -5.5699    1.5735   -0.0417 O   0  0  0  0  0  0  0  0  0  0  0  0
   -6.6223    3.8037    0.6022 O   0  0  0  0  0  0  0  0  0  0  0  0
   -5.0931    3.5789   -1.3594 O   0  0  0  0  0  0  0  0  0  0  0  0
   -5.3160    4.5247   -1.3808 H   0  0  0  0  0  0  0  0  0  0  0  0
  1  2  1  0  0  0  0
  1  4  2  0  0  0  0
  2  3  1  0  0  0  0
  5  4  1  0  0  0  0
  5 10  1  0  0  0  0
  6  5  2  0  0  0  0
  7  8  2  0  0  0  0
  7  6  1  0  0  0  0
  8  1  1  0  0  0  0
  9 15  1  0  0  0  0
 11  6  1  0  0  0  0
 12  7  1  0  0  0  0
 13  8  1  0  0  0  0
 14 17  2  0  0  0  0
 14 15  1  0  0  0  0
 16 14  2  0  0  0  0
 18 14  1  0  0  0  0
 19 18  1  0  0  0  0
M  RAD  3   2   2   3   3   4   2
M  END
