Coordinates from ORCA-job PhN2+~HSO4-_B3LYPG-6-31G_dp-CH-Scan-d09-49-n800
 OpenBabel11261919183D

 19 18  0  0  0  0  0  0  0  0999 V2000
   -2.0612   -0.0583   -0.2791 C   0  0  0  0  0  0  0  0  0  0  0  0
   -3.3839   -0.4498   -0.4254 N   0  0  0  0  0  0  0  0  0  0  0  0
   -4.4559   -0.7372   -0.5375 N   0  0  0  0  0  0  0  0  0  0  0  0
   -1.8471    1.3041    0.0024 C   0  0  0  0  0  0  0  0  0  0  0  0
   -0.4684    1.5891    0.1295 C   0  0  0  0  0  0  0  0  0  0  0  0
    0.5300    0.6278   -0.0101 C   0  0  0  0  0  0  0  0  0  0  0  0
    0.2201   -0.7191   -0.2956 C   0  0  0  0  0  0  0  0  0  0  0  0
   -1.0999   -1.0904   -0.4376 C   0  0  0  0  0  0  0  0  0  0  0  0
   -3.0152    2.5276    0.2245 H   0  0  0  0  0  0  0  0  0  0  0  0
   -0.1690    2.6115    0.3510 H   0  0  0  0  0  0  0  0  0  0  0  0
    1.5738    0.9122    0.1021 H   0  0  0  0  0  0  0  0  0  0  0  0
    1.0090   -1.4560   -0.4028 H   0  0  0  0  0  0  0  0  0  0  0  0
   -1.3931   -2.1123   -0.6583 H   0  0  0  0  0  0  0  0  0  0  0  0
   -5.1790    2.9699    0.3482 S   0  0  0  0  0  0  0  0  0  0  0  0
   -3.6673    3.3662    0.4092 O   0  0  0  0  0  0  0  0  0  0  0  0
   -5.3430    1.5443    0.6130 O   0  0  0  0  0  0  0  0  0  0  0  0
   -5.9602    3.9683    1.0592 O   0  0  0  0  0  0  0  0  0  0  0  0
   -5.5365    3.1230   -1.2493 O   0  0  0  0  0  0  0  0  0  0  0  0
   -5.7687    4.0545   -1.3948 H   0  0  0  0  0  0  0  0  0  0  0  0
  1  4  2  0  0  0  0
  2  1  1  0  0  0  0
  3  2  1  0  0  0  0
  4  5  1  0  0  0  0
  5 10  1  0  0  0  0
  6 11  1  0  0  0  0
  6  5  2  0  0  0  0
  7  6  1  0  0  0  0
  8  7  2  0  0  0  0
  8  1  1  0  0  0  0
  9 15  1  0  0  0  0
 12  7  1  0  0  0  0
 13  8  1  0  0  0  0
 14 15  1  0  0  0  0
 14 16  2  0  0  0  0
 14 17  2  0  0  0  0
 18 14  1  0  0  0  0
 19 18  1  0  0  0  0
M  RAD  3   2   2   3   3   4   2
M  END
