Coordinates from ORCA-job PhN2+~HSO4-_B3LYPG-6-31G_dp-CH-Scan-d09-49-n800
 OpenBabel11261919183D

 19 18  0  0  0  0  0  0  0  0999 V2000
   -1.9449   -0.1889   -0.0578 C   0  0  0  0  0  0  0  0  0  0  0  0
   -3.2620   -0.6188    0.0427 N   0  0  0  0  0  0  0  0  0  0  0  0
   -4.3293   -0.9349    0.1344 N   0  0  0  0  0  0  0  0  0  0  0  0
   -1.7491    1.1722    0.2396 C   0  0  0  0  0  0  0  0  0  0  0  0
   -0.3755    1.5071    0.1155 C   0  0  0  0  0  0  0  0  0  0  0  0
    0.6120    0.5965   -0.2501 C   0  0  0  0  0  0  0  0  0  0  0  0
    0.3060   -0.7559   -0.5300 C   0  0  0  0  0  0  0  0  0  0  0  0
   -1.0007   -1.1814   -0.4368 C   0  0  0  0  0  0  0  0  0  0  0  0
   -3.4666    2.7437    0.8102 H   0  0  0  0  0  0  0  0  0  0  0  0
   -0.0671    2.5320    0.3174 H   0  0  0  0  0  0  0  0  0  0  0  0
    1.6478    0.9216   -0.3263 H   0  0  0  0  0  0  0  0  0  0  0  0
    1.0896   -1.4503   -0.8144 H   0  0  0  0  0  0  0  0  0  0  0  0
   -1.2933   -2.2071   -0.6420 H   0  0  0  0  0  0  0  0  0  0  0  0
   -5.4804    3.0025    0.1151 S   0  0  0  0  0  0  0  0  0  0  0  0
   -4.2018    3.3834    0.9948 O   0  0  0  0  0  0  0  0  0  0  0  0
   -5.5654    1.5631   -0.0487 O   0  0  0  0  0  0  0  0  0  0  0  0
   -6.5768    3.8043    0.6198 O   0  0  0  0  0  0  0  0  0  0  0  0
   -5.0741    3.5686   -1.3608 O   0  0  0  0  0  0  0  0  0  0  0  0
   -5.2838    4.5176   -1.3737 H   0  0  0  0  0  0  0  0  0  0  0  0
  1  2  1  0  0  0  0
  1  4  2  0  0  0  0
  2  3  1  0  0  0  0
  5  4  1  0  0  0  0
  5 10  1  0  0  0  0
  6  5  2  0  0  0  0
  7  8  2  0  0  0  0
  7  6  1  0  0  0  0
  8  1  1  0  0  0  0
  9 15  1  0  0  0  0
 11  6  1  0  0  0  0
 12  7  1  0  0  0  0
 13  8  1  0  0  0  0
 14 17  2  0  0  0  0
 14 15  1  0  0  0  0
 16 14  2  0  0  0  0
 18 14  1  0  0  0  0
 19 18  1  0  0  0  0
M  RAD  3   2   2   3   3   4   2
M  END
