Coordinates from ORCA-job PhN2+~HSO4-_B3LYPG-6-31G_dp-CH-Scan-d09-49-n800
 OpenBabel11261919183D

 19 18  0  0  0  0  0  0  0  0999 V2000
   -1.8876   -0.2055   -0.0582 C   0  0  0  0  0  0  0  0  0  0  0  0
   -3.2135   -0.6098    0.0465 N   0  0  0  0  0  0  0  0  0  0  0  0
   -4.2875   -0.9019    0.1444 N   0  0  0  0  0  0  0  0  0  0  0  0
   -1.6706    1.1478    0.2575 C   0  0  0  0  0  0  0  0  0  0  0  0
   -0.2905    1.4590    0.1281 C   0  0  0  0  0  0  0  0  0  0  0  0
    0.6784    0.5369   -0.2568 C   0  0  0  0  0  0  0  0  0  0  0  0
    0.3477   -0.8069   -0.5533 C   0  0  0  0  0  0  0  0  0  0  0  0
   -0.9653   -1.2112   -0.4574 C   0  0  0  0  0  0  0  0  0  0  0  0
   -3.5851    2.8998    0.8946 H   0  0  0  0  0  0  0  0  0  0  0  0
    0.0388    2.4754    0.3418 H   0  0  0  0  0  0  0  0  0  0  0  0
    1.7194    0.8448   -0.3362 H   0  0  0  0  0  0  0  0  0  0  0  0
    1.1178   -1.5103   -0.8523 H   0  0  0  0  0  0  0  0  0  0  0  0
   -1.2773   -2.2289   -0.6743 H   0  0  0  0  0  0  0  0  0  0  0  0
   -5.5737    3.0421    0.1100 S   0  0  0  0  0  0  0  0  0  0  0  0
   -4.3462    3.5067    1.0339 O   0  0  0  0  0  0  0  0  0  0  0  0
   -5.5779    1.5983   -0.0215 O   0  0  0  0  0  0  0  0  0  0  0  0
   -6.7216    3.8023    0.5597 O   0  0  0  0  0  0  0  0  0  0  0  0
   -5.1339    3.5995   -1.3573 O   0  0  0  0  0  0  0  0  0  0  0  0
   -5.3870    4.5371   -1.4003 H   0  0  0  0  0  0  0  0  0  0  0  0
  1  2  1  0  0  0  0
  1  4  2  0  0  0  0
  2  3  1  0  0  0  0
  5  4  1  0  0  0  0
  5 10  1  0  0  0  0
  6  5  2  0  0  0  0
  7  8  2  0  0  0  0
  7  6  1  0  0  0  0
  8  1  1  0  0  0  0
  9 15  1  0  0  0  0
 11  6  1  0  0  0  0
 12  7  1  0  0  0  0
 13  8  1  0  0  0  0
 14 17  2  0  0  0  0
 14 15  1  0  0  0  0
 16 14  2  0  0  0  0
 18 14  1  0  0  0  0
 19 18  1  0  0  0  0
M  RAD  3   2   2   3   3   4   2
M  END
