Coordinates from ORCA-job PhN2+~HSO4-_B3LYPG-6-31G_dp-CH-Scan-d09-49-n800
 OpenBabel11261919183D

 19 18  0  0  0  0  0  0  0  0999 V2000
   -1.7548   -0.2467   -0.0540 C   0  0  0  0  0  0  0  0  0  0  0  0
   -3.0988   -0.5918    0.0642 N   0  0  0  0  0  0  0  0  0  0  0  0
   -4.1864   -0.8246    0.1794 N   0  0  0  0  0  0  0  0  0  0  0  0
   -1.4882    1.0847    0.3082 C   0  0  0  0  0  0  0  0  0  0  0  0
   -0.0956    1.3422    0.1624 C   0  0  0  0  0  0  0  0  0  0  0  0
    0.8287    0.3981   -0.2740 C   0  0  0  0  0  0  0  0  0  0  0  0
    0.4404   -0.9216   -0.6126 C   0  0  0  0  0  0  0  0  0  0  0  0
   -0.8855   -1.2772   -0.5067 C   0  0  0  0  0  0  0  0  0  0  0  0
   -3.8811    3.2624    1.0873 H   0  0  0  0  0  0  0  0  0  0  0  0
    0.2809    2.3363    0.4055 H   0  0  0  0  0  0  0  0  0  0  0  0
    1.8800    0.6672   -0.3629 H   0  0  0  0  0  0  0  0  0  0  0  0
    1.1776   -1.6427   -0.9502 H   0  0  0  0  0  0  0  0  0  0  0  0
   -1.2426   -2.2735   -0.7530 H   0  0  0  0  0  0  0  0  0  0  0  0
   -5.7753    3.1340    0.0971 S   0  0  0  0  0  0  0  0  0  0  0  0
   -4.6996    3.7917    1.1070 O   0  0  0  0  0  0  0  0  0  0  0  0
   -5.5803    1.7002    0.0471 O   0  0  0  0  0  0  0  0  0  0  0  0
   -7.0400    3.7638    0.4111 O   0  0  0  0  0  0  0  0  0  0  0  0
   -5.2673    3.6885   -1.3460 O   0  0  0  0  0  0  0  0  0  0  0  0
   -5.6274    4.5843   -1.4611 H   0  0  0  0  0  0  0  0  0  0  0  0
  1  2  1  0  0  0  0
  1  4  2  0  0  0  0
  2  3  1  0  0  0  0
  5  4  1  0  0  0  0
  5 10  1  0  0  0  0
  6  5  2  0  0  0  0
  7  8  2  0  0  0  0
  7  6  1  0  0  0  0
  8  1  1  0  0  0  0
  9 15  1  0  0  0  0
 11  6  1  0  0  0  0
 12  7  1  0  0  0  0
 13  8  1  0  0  0  0
 14 17  2  0  0  0  0
 14 15  1  0  0  0  0
 16 14  2  0  0  0  0
 18 14  1  0  0  0  0
 19 18  1  0  0  0  0
M  RAD  3   2   2   3   3   4   2
M  END
