16
Coordinates from ORCA-job 4-NO2PhN2+~Cl-_B3LYPG-6-31G_dp-CH-Scan-d09-49-n800
  C   -0.97502609959909      0.07753635853831     -0.06431133439528
  N   -2.37199737999621      0.24598656427718     -0.07377747780089
  N   -3.46782307633993      0.46467405235531     -0.08876998093033
  C   -0.31091943456550      1.29809228483055     -0.17647753638865
  C   1.10020025194370      1.07677460742119     -0.16095320475009
  C   1.64287824009605     -0.19385964155061     -0.04731860444087
  N   3.12161825161333     -0.35466832118265     -0.03545850923224
  O   3.80696393966780      0.65923234704875     -0.12830480033870
  O   3.56757672702487     -1.49735361017778      0.06672869422421
  C   0.87481442817960     -1.37594426380122      0.06100580014555
  C   -0.49486349609794     -1.25393184128625      0.05392414909514
  H   -3.80766359805226      4.71961655648743     -0.45207126628980
  H   1.78969609354797      1.91268511427834     -0.23874580652250
  H   1.37232930254084     -2.33268671610750      0.14590725319556
  H   -1.15119443534795     -2.11582386452910      0.13337869115562
  Cl  -4.74968971461536      3.84807037339803     -0.36505606672675
