35
Coordinates from ORCA-job 4-MeOPhN2+~TsO-_B3LYPG-6-31G_dp-CH-Scan-d09-49-n800
  C   -1.51261710266437     -0.27673808268539     -0.57293604093992
  N   -2.86644493343688     -0.40208767794790     -0.81506089426398
  N   -3.96625479661598     -0.45561775773050     -1.03006093854838
  C   -0.97942020178237      0.97907437225769     -0.94510813172266
  C   0.40117075773366      1.00986678008254     -0.66392688760864
  C   1.11782485180349     -0.05589817017524     -0.09972131247505
  O   2.44411997278577      0.14962244159048      0.10113673859070
  C   3.24018636997014     -0.88333338351548      0.66794867888378
  C   0.47597036942701     -1.28231637973134      0.23889887104497
  C   -0.87242792095269     -1.40788097939251      0.00046387328515
  H   -4.51957522009335      3.73048434479625     -2.92173294208049
  H   0.98817313169632      1.90265046992389     -0.88530816136948
  H   4.25256295506493     -0.48105144231196      0.72666630633643
  H   3.24638425911961     -1.78204206354519      0.03903228580943
  H   2.90082276512649     -1.14943306124748      1.67631154284286
  H   1.02751744353016     -2.10565268205988      0.67471131141400
  H   -1.40772575435634     -2.32362648266820      0.24124321101186
  C   -8.10888501141678      3.92853581223971     -1.31499248765596
  C   -9.31952160566764      4.57583928178476     -1.08637090037199
  C   -10.28640783476044      4.68678493887401     -2.09814191590017
  C   -10.00949756448085      4.12826422985448     -3.35349984922004
  C   -8.80365210259885      3.47502480566246     -3.60282731973149
  C   -7.86215123767079      3.38645053920940     -2.57804727256124
  H   -7.36772550267664      3.83257463941967     -0.52875270996158
  H   -9.51890728946526      5.00125006489598     -0.10648254870213
  H   -10.74805606787471      4.20329927447419     -4.14728095894113
  H   -8.59326121567447      3.03356400919938     -4.57047176079195
  S   -6.31330586308515      2.56421622349551     -2.88691862784548
  O   -5.75352869537219      2.06044027142610     -1.63064165721086
  O   -5.39518198627977      3.85797162523720     -3.32637160469567
  O   -6.46265217038602      1.69081349197435     -4.04454567017409
  C   -11.60528412238648      5.36886391509434     -1.82659791113244
  H   -12.29934230106791      4.68882747928641     -1.31674953968546
  H   -11.47666481152178      6.24350904941863     -1.18175469462182
  H   -12.08594156396993      5.69515010281374     -2.75251008100714
