Coordinates from ORCA-job PhN2+_B3LYPG-6-31G_dp-d09-49-n800
 OpenBabel11261919553D

 13 13  0  0  0  0  0  0  0  0999 V2000
   -1.3494   -0.0862   -0.0619 C   0  0  0  0  0  0  0  0  0  0  0  0
   -2.7215   -0.1570   -0.1072 N   0  0  0  0  0  0  0  0  0  0  0  0
   -3.8348   -0.2145   -0.1447 N   0  0  0  0  0  0  0  0  0  0  0  0
   -0.7501    1.1887   -0.0402 C   0  0  0  0  0  0  0  0  0  0  0  0
    0.6315    1.2504    0.0058 C   0  0  0  0  0  0  0  0  0  0  0  0
    1.3804    0.0634    0.0289 C   0  0  0  0  0  0  0  0  0  0  0  0
    0.7616   -1.1960    0.0064 C   0  0  0  0  0  0  0  0  0  0  0  0
   -0.6202   -1.2953   -0.0395 C   0  0  0  0  0  0  0  0  0  0  0  0
   -1.4711    2.2406   -0.0625 H   0  0  0  0  0  0  0  0  0  0  0  0
    1.1291    2.2135    0.0238 H   0  0  0  0  0  0  0  0  0  0  0  0
    2.4641    0.1219    0.0654 H   0  0  0  0  0  0  0  0  0  0  0  0
    1.3612   -2.0994    0.0251 H   0  0  0  0  0  0  0  0  0  0  0  0
   -1.1291   -2.2529   -0.0577 H   0  0  0  0  0  0  0  0  0  0  0  0
  1  4  2  0  0  0  0
  1  8  1  0  0  0  0
  2  1  1  0  0  0  0
  3  2  1  0  0  0  0
  4  5  1  0  0  0  0
  5 10  1  0  0  0  0
  5  6  2  0  0  0  0
  6 11  1  0  0  0  0
  7 12  1  0  0  0  0
  7  6  1  0  0  0  0
  8  7  2  0  0  0  0
  9  4  1  0  0  0  0
 13  8  1  0  0  0  0
M  RAD  2   2   2   3   3
M  END
