Coordinates from ORCA-job PhN2+_B3LYPG-6-31G_dp-d09-49-n800
 OpenBabel11261919563D

 13 12  0  0  0  0  0  0  0  0999 V2000
   -1.2526   -0.2679   -0.0596 C   0  0  0  0  0  0  0  0  0  0  0  0
   -2.6283   -0.3243   -0.1054 N   0  0  0  0  0  0  0  0  0  0  0  0
   -3.7417   -0.3689   -0.1423 N   0  0  0  0  0  0  0  0  0  0  0  0
   -0.6286    0.9753   -0.0376 C   0  0  0  0  0  0  0  0  0  0  0  0
    0.7328    1.0914    0.0081 C   0  0  0  0  0  0  0  0  0  0  0  0
    1.4828   -0.1049    0.0322 C   0  0  0  0  0  0  0  0  0  0  0  0
    0.8645   -1.3673    0.0102 C   0  0  0  0  0  0  0  0  0  0  0  0
   -0.5140   -1.4810   -0.0362 C   0  0  0  0  0  0  0  0  0  0  0  0
   -2.7214    4.3175   -0.0987 H   0  0  0  0  0  0  0  0  0  0  0  0
    1.2372    2.0541    0.0259 H   0  0  0  0  0  0  0  0  0  0  0  0
    2.5676   -0.0394    0.0691 H   0  0  0  0  0  0  0  0  0  0  0  0
    1.4728   -2.2652    0.0298 H   0  0  0  0  0  0  0  0  0  0  0  0
   -1.0194   -2.4423   -0.0540 H   0  0  0  0  0  0  0  0  0  0  0  0
  1  4  2  0  0  0  0
  1  8  1  0  0  0  0
  2  1  1  0  0  0  0
  3  2  1  0  0  0  0
  4  5  1  0  0  0  0
  5 10  1  0  0  0  0
  5  6  2  0  0  0  0
  6 11  1  0  0  0  0
  7 12  1  0  0  0  0
  7  6  1  0  0  0  0
  8  7  2  0  0  0  0
 13  8  1  0  0  0  0
M  RAD  4   2   2   3   3   4   2   9   2
M  END
