Coordinates from ORCA-job PhN2+_B3LYPG-6-31G_dp-d09-49-n800
 OpenBabel11261919563D

 13 12  0  0  0  0  0  0  0  0999 V2000
   -1.2499   -0.3098   -0.0599 C   0  0  0  0  0  0  0  0  0  0  0  0
   -2.6254   -0.3839   -0.1058 N   0  0  0  0  0  0  0  0  0  0  0  0
   -3.7383   -0.4409   -0.1428 N   0  0  0  0  0  0  0  0  0  0  0  0
   -0.6447    0.9426   -0.0387 C   0  0  0  0  0  0  0  0  0  0  0  0
    0.7162    1.0733    0.0072 C   0  0  0  0  0  0  0  0  0  0  0  0
    1.4817   -0.1129    0.0322 C   0  0  0  0  0  0  0  0  0  0  0  0
    0.8797   -1.3834    0.0109 C   0  0  0  0  0  0  0  0  0  0  0  0
   -0.4972   -1.5143   -0.0355 C   0  0  0  0  0  0  0  0  0  0  0  0
   -2.7546    4.6535   -0.0981 H   0  0  0  0  0  0  0  0  0  0  0  0
    1.2098    2.0417    0.0244 H   0  0  0  0  0  0  0  0  0  0  0  0
    2.5656   -0.0336    0.0692 H   0  0  0  0  0  0  0  0  0  0  0  0
    1.4994   -2.2733    0.0313 H   0  0  0  0  0  0  0  0  0  0  0  0
   -0.9907   -2.4818   -0.0528 H   0  0  0  0  0  0  0  0  0  0  0  0
  1  4  2  0  0  0  0
  1  8  1  0  0  0  0
  2  1  1  0  0  0  0
  3  2  1  0  0  0  0
  4  5  1  0  0  0  0
  5 10  1  0  0  0  0
  5  6  2  0  0  0  0
  6 11  1  0  0  0  0
  7 12  1  0  0  0  0
  7  6  1  0  0  0  0
  8  7  2  0  0  0  0
 13  8  1  0  0  0  0
M  RAD  4   2   2   3   3   4   2   9   2
M  END
