Coordinates from ORCA-job PhN2+_B3LYPG-6-31G_dp-d09-49-n800
 OpenBabel11261919563D

 13 12  0  0  0  0  0  0  0  0999 V2000
   -1.2498   -0.3283   -0.0600 C   0  0  0  0  0  0  0  0  0  0  0  0
   -2.6251   -0.4108   -0.1060 N   0  0  0  0  0  0  0  0  0  0  0  0
   -3.7377   -0.4739   -0.1429 N   0  0  0  0  0  0  0  0  0  0  0  0
   -0.6534    0.9283   -0.0391 C   0  0  0  0  0  0  0  0  0  0  0  0
    0.7070    1.0666    0.0068 C   0  0  0  0  0  0  0  0  0  0  0  0
    1.4799   -0.1147    0.0322 C   0  0  0  0  0  0  0  0  0  0  0  0
    0.8859   -1.3889    0.0112 C   0  0  0  0  0  0  0  0  0  0  0  0
   -0.4901   -1.5284   -0.0353 C   0  0  0  0  0  0  0  0  0  0  0  0
   -2.7570    4.7917   -0.0976 H   0  0  0  0  0  0  0  0  0  0  0  0
    1.1951    2.0379    0.0237 H   0  0  0  0  0  0  0  0  0  0  0  0
    2.5633   -0.0286    0.0692 H   0  0  0  0  0  0  0  0  0  0  0  0
    1.5111   -2.2750    0.0318 H   0  0  0  0  0  0  0  0  0  0  0  0
   -0.9777   -2.4989   -0.0523 H   0  0  0  0  0  0  0  0  0  0  0  0
  1  4  2  0  0  0  0
  1  8  1  0  0  0  0
  2  1  1  0  0  0  0
  3  2  1  0  0  0  0
  4  5  1  0  0  0  0
  5 10  1  0  0  0  0
  5  6  2  0  0  0  0
  6 11  1  0  0  0  0
  7 12  1  0  0  0  0
  7  6  1  0  0  0  0
  8  7  2  0  0  0  0
 13  8  1  0  0  0  0
M  RAD  4   2   2   3   3   4   2   9   2
M  END
