Coordinates from ORCA-job PhN2+_B3LYPG-6-31G_dp-d09-49-n800
 OpenBabel11261919563D

 13 12  0  0  0  0  0  0  0  0999 V2000
   -1.3210   -0.1371   -0.0612 C   0  0  0  0  0  0  0  0  0  0  0  0
   -2.6919   -0.1808   -0.1065 N   0  0  0  0  0  0  0  0  0  0  0  0
   -3.8054   -0.2180   -0.1432 N   0  0  0  0  0  0  0  0  0  0  0  0
   -0.6847    1.1069   -0.0383 C   0  0  0  0  0  0  0  0  0  0  0  0
    0.6813    1.2080    0.0074 C   0  0  0  0  0  0  0  0  0  0  0  0
    1.4186    0.0077    0.0302 C   0  0  0  0  0  0  0  0  0  0  0  0
    0.7913   -1.2491    0.0074 C   0  0  0  0  0  0  0  0  0  0  0  0
   -0.5900   -1.3500   -0.0387 C   0  0  0  0  0  0  0  0  0  0  0  0
   -1.9202    2.8187   -0.0766 H   0  0  0  0  0  0  0  0  0  0  0  0
    1.1809    2.1700    0.0254 H   0  0  0  0  0  0  0  0  0  0  0  0
    2.5032    0.0613    0.0669 H   0  0  0  0  0  0  0  0  0  0  0  0
    1.3902   -2.1529    0.0261 H   0  0  0  0  0  0  0  0  0  0  0  0
   -1.1008   -2.3074   -0.0571 H   0  0  0  0  0  0  0  0  0  0  0  0
  1  8  2  0  0  0  0
  1  4  1  0  0  0  0
  2  1  1  0  0  0  0
  3  2  1  0  0  0  0
  4  5  2  0  0  0  0
  5 10  1  0  0  0  0
  5  6  1  0  0  0  0
  6 11  1  0  0  0  0
  7 12  1  0  0  0  0
  7  6  2  0  0  0  0
  8  7  1  0  0  0  0
 13  8  1  0  0  0  0
M  RAD  4   2   2   3   3   4   2   9   2
M  END
