Coordinates from ORCA-job PhN2+_B3LYPG-6-31G_dp-d09-49-n800
 OpenBabel11261919563D

 13 12  0  0  0  0  0  0  0  0999 V2000
   -1.2532   -0.4015   -0.0605 C   0  0  0  0  0  0  0  0  0  0  0  0
   -2.6265   -0.5202   -0.1063 N   0  0  0  0  0  0  0  0  0  0  0  0
   -3.7372   -0.6106   -0.1430 N   0  0  0  0  0  0  0  0  0  0  0  0
   -0.6932    0.8717   -0.0408 C   0  0  0  0  0  0  0  0  0  0  0  0
    0.6639    1.0442    0.0052 C   0  0  0  0  0  0  0  0  0  0  0  0
    1.4684   -0.1154    0.0319 C   0  0  0  0  0  0  0  0  0  0  0  0
    0.9088   -1.4054    0.0120 C   0  0  0  0  0  0  0  0  0  0  0  0
   -0.4628   -1.5816   -0.0346 C   0  0  0  0  0  0  0  0  0  0  0  0
   -2.7261    5.3077   -0.0953 H   0  0  0  0  0  0  0  0  0  0  0  0
    1.1269    2.0279    0.0214 H   0  0  0  0  0  0  0  0  0  0  0  0
    2.5492   -0.0005    0.0690 H   0  0  0  0  0  0  0  0  0  0  0  0
    1.5577   -2.2743    0.0336 H   0  0  0  0  0  0  0  0  0  0  0  0
   -0.9243   -2.5648   -0.0508 H   0  0  0  0  0  0  0  0  0  0  0  0
  1  4  2  0  0  0  0
  1  8  1  0  0  0  0
  2  1  1  0  0  0  0
  3  2  1  0  0  0  0
  4  5  1  0  0  0  0
  5 10  1  0  0  0  0
  5  6  2  0  0  0  0
  6 11  1  0  0  0  0
  7  6  1  0  0  0  0
  7 12  1  0  0  0  0
  8  7  2  0  0  0  0
 13  8  1  0  0  0  0
M  RAD  4   2   2   3   3   4   2   9   2
M  END
