Coordinates from ORCA-job PhN2+_B3LYPG-6-31G_dp-d09-49-n800
 OpenBabel11261919563D

 13 12  0  0  0  0  0  0  0  0999 V2000
   -1.2506   -0.2917   -0.0604 C   0  0  0  0  0  0  0  0  0  0  0  0
   -2.6263   -0.3578   -0.1069 N   0  0  0  0  0  0  0  0  0  0  0  0
   -3.7395   -0.4091   -0.1399 N   0  0  0  0  0  0  0  0  0  0  0  0
   -0.6370    0.9568   -0.0384 C   0  0  0  0  0  0  0  0  0  0  0  0
    0.7243    1.0807    0.0078 C   0  0  0  0  0  0  0  0  0  0  0  0
    1.4827   -0.1102    0.0325 C   0  0  0  0  0  0  0  0  0  0  0  0
    0.8733   -1.3770    0.0106 C   0  0  0  0  0  0  0  0  0  0  0  0
   -0.5043   -1.5002   -0.0363 C   0  0  0  0  0  0  0  0  0  0  0  0
   -2.7457    4.5121   -0.0992 H   0  0  0  0  0  0  0  0  0  0  0  0
    1.2229    2.0464    0.0255 H   0  0  0  0  0  0  0  0  0  0  0  0
    2.5670   -0.0373    0.0698 H   0  0  0  0  0  0  0  0  0  0  0  0
    1.4878   -2.2706    0.0307 H   0  0  0  0  0  0  0  0  0  0  0  0
   -1.0032   -2.4649   -0.0541 H   0  0  0  0  0  0  0  0  0  0  0  0
  1  4  2  0  0  0  0
  1  8  1  0  0  0  0
  2  1  1  0  0  0  0
  3  2  1  0  0  0  0
  4  5  1  0  0  0  0
  5 10  1  0  0  0  0
  5  6  2  0  0  0  0
  6 11  1  0  0  0  0
  7 12  1  0  0  0  0
  7  6  1  0  0  0  0
  8  7  2  0  0  0  0
 13  8  1  0  0  0  0
M  RAD  4   2   2   3   3   4   2   9   2
M  END
