Coordinates from ORCA-job PhN2+_B3LYPG-6-31G_dp-d09-49-n800
 OpenBabel11261919563D

 13 12  0  0  0  0  0  0  0  0999 V2000
   -1.2721   -0.2005   -0.0597 C   0  0  0  0  0  0  0  0  0  0  0  0
   -2.6463   -0.2356   -0.1051 N   0  0  0  0  0  0  0  0  0  0  0  0
   -3.7600   -0.2656   -0.1422 N   0  0  0  0  0  0  0  0  0  0  0  0
   -0.6241    1.0308   -0.0365 C   0  0  0  0  0  0  0  0  0  0  0  0
    0.7363    1.1368    0.0090 C   0  0  0  0  0  0  0  0  0  0  0  0
    1.4691   -0.0705    0.0318 C   0  0  0  0  0  0  0  0  0  0  0  0
    0.8341   -1.3241    0.0088 C   0  0  0  0  0  0  0  0  0  0  0  0
   -0.5465   -1.4206   -0.0373 C   0  0  0  0  0  0  0  0  0  0  0  0
   -2.5087    3.6570   -0.0947 H   0  0  0  0  0  0  0  0  0  0  0  0
    1.2479    2.0947    0.0273 H   0  0  0  0  0  0  0  0  0  0  0  0
    2.5545   -0.0197    0.0685 H   0  0  0  0  0  0  0  0  0  0  0  0
    1.4303   -2.2299    0.0275 H   0  0  0  0  0  0  0  0  0  0  0  0
   -1.0631   -2.3757   -0.0558 H   0  0  0  0  0  0  0  0  0  0  0  0
  1  8  2  0  0  0  0
  1  4  1  0  0  0  0
  2  1  1  0  0  0  0
  3  2  1  0  0  0  0
  4  5  2  0  0  0  0
  5 10  1  0  0  0  0
  5  6  1  0  0  0  0
  6 11  1  0  0  0  0
  7 12  1  0  0  0  0
  7  6  2  0  0  0  0
  8  7  1  0  0  0  0
 13  8  1  0  0  0  0
M  RAD  4   2   2   3   3   4   2   9   2
M  END
