Coordinates from ORCA-job PhN2+_B3LYPG-6-31G_dp-d09-49-n800
 OpenBabel11261919563D

 13 12  0  0  0  0  0  0  0  0999 V2000
   -1.2537   -0.2604   -0.0595 C   0  0  0  0  0  0  0  0  0  0  0  0
   -2.6293   -0.3139   -0.1052 N   0  0  0  0  0  0  0  0  0  0  0  0
   -3.7428   -0.3565   -0.1425 N   0  0  0  0  0  0  0  0  0  0  0  0
   -0.6265    0.9813   -0.0374 C   0  0  0  0  0  0  0  0  0  0  0  0
    0.7349    1.0953    0.0083 C   0  0  0  0  0  0  0  0  0  0  0  0
    1.4824   -0.1027    0.0322 C   0  0  0  0  0  0  0  0  0  0  0  0
    0.8616   -1.3638    0.0100 C   0  0  0  0  0  0  0  0  0  0  0  0
   -0.5172   -1.4747   -0.0362 C   0  0  0  0  0  0  0  0  0  0  0  0
   -2.7096    4.2526   -0.0987 H   0  0  0  0  0  0  0  0  0  0  0  0
    1.2409    2.0570    0.0261 H   0  0  0  0  0  0  0  0  0  0  0  0
    2.5673   -0.0394    0.0690 H   0  0  0  0  0  0  0  0  0  0  0  0
    1.4681   -2.2628    0.0295 H   0  0  0  0  0  0  0  0  0  0  0  0
   -1.0245   -2.4350   -0.0541 H   0  0  0  0  0  0  0  0  0  0  0  0
  1  4  2  0  0  0  0
  1  8  1  0  0  0  0
  2  1  1  0  0  0  0
  3  2  1  0  0  0  0
  4  5  1  0  0  0  0
  5 10  1  0  0  0  0
  5  6  2  0  0  0  0
  6 11  1  0  0  0  0
  7 12  1  0  0  0  0
  7  6  1  0  0  0  0
  8  7  2  0  0  0  0
 13  8  1  0  0  0  0
M  RAD  4   2   2   3   3   4   2   9   2
M  END
