Coordinates from ORCA-job PhN2+_B3LYPG-6-31G_dp-d09-49-n800
 OpenBabel11261919563D

 13 12  0  0  0  0  0  0  0  0999 V2000
   -1.2503   -0.2969   -0.0598 C   0  0  0  0  0  0  0  0  0  0  0  0
   -2.6259   -0.3652   -0.1056 N   0  0  0  0  0  0  0  0  0  0  0  0
   -3.7390   -0.4180   -0.1426 N   0  0  0  0  0  0  0  0  0  0  0  0
   -0.6390    0.9526   -0.0383 C   0  0  0  0  0  0  0  0  0  0  0  0
    0.7221    1.0784    0.0075 C   0  0  0  0  0  0  0  0  0  0  0  0
    1.4825   -0.1112    0.0322 C   0  0  0  0  0  0  0  0  0  0  0  0
    0.8752   -1.3790    0.0107 C   0  0  0  0  0  0  0  0  0  0  0  0
   -0.5022   -1.5043   -0.0357 C   0  0  0  0  0  0  0  0  0  0  0  0
   -2.7494    4.5535   -0.0985 H   0  0  0  0  0  0  0  0  0  0  0  0
    1.2194    2.0449    0.0249 H   0  0  0  0  0  0  0  0  0  0  0  0
    2.5667   -0.0364    0.0692 H   0  0  0  0  0  0  0  0  0  0  0  0
    1.4912   -2.2715    0.0308 H   0  0  0  0  0  0  0  0  0  0  0  0
   -0.9997   -2.4697   -0.0532 H   0  0  0  0  0  0  0  0  0  0  0  0
  1  4  2  0  0  0  0
  1  8  1  0  0  0  0
  2  1  1  0  0  0  0
  3  2  1  0  0  0  0
  4  5  1  0  0  0  0
  5 10  1  0  0  0  0
  5  6  2  0  0  0  0
  6 11  1  0  0  0  0
  7 12  1  0  0  0  0
  7  6  1  0  0  0  0
  8  7  2  0  0  0  0
 13  8  1  0  0  0  0
M  RAD  4   2   2   3   3   4   2   9   2
M  END
