Coordinates from ORCA-job PhN2+_B3LYPG-6-31G_dp-d09-49-n800
 OpenBabel11261919563D

 13 12  0  0  0  0  0  0  0  0999 V2000
   -1.2508   -0.2870   -0.0597 C   0  0  0  0  0  0  0  0  0  0  0  0
   -2.6266   -0.3510   -0.1056 N   0  0  0  0  0  0  0  0  0  0  0  0
   -3.7398   -0.4009   -0.1424 N   0  0  0  0  0  0  0  0  0  0  0  0
   -0.6350    0.9600   -0.0380 C   0  0  0  0  0  0  0  0  0  0  0  0
    0.7261    1.0826    0.0077 C   0  0  0  0  0  0  0  0  0  0  0  0
    1.4829   -0.1094    0.0323 C   0  0  0  0  0  0  0  0  0  0  0  0
    0.8717   -1.3753    0.0105 C   0  0  0  0  0  0  0  0  0  0  0  0
   -0.5062   -1.4965   -0.0359 C   0  0  0  0  0  0  0  0  0  0  0  0
   -2.7425    4.4752   -0.0987 H   0  0  0  0  0  0  0  0  0  0  0  0
    1.2259    2.0477    0.0253 H   0  0  0  0  0  0  0  0  0  0  0  0
    2.5673   -0.0379    0.0692 H   0  0  0  0  0  0  0  0  0  0  0  0
    1.4849   -2.2697    0.0305 H   0  0  0  0  0  0  0  0  0  0  0  0
   -1.0064   -2.4605   -0.0535 H   0  0  0  0  0  0  0  0  0  0  0  0
  1  4  2  0  0  0  0
  1  8  1  0  0  0  0
  2  1  1  0  0  0  0
  3  2  1  0  0  0  0
  4  5  1  0  0  0  0
  5 10  1  0  0  0  0
  5  6  2  0  0  0  0
  6 11  1  0  0  0  0
  7 12  1  0  0  0  0
  7  6  1  0  0  0  0
  8  7  2  0  0  0  0
 13  8  1  0  0  0  0
M  RAD  4   2   2   3   3   4   2   9   2
M  END
