Coordinates from ORCA-job PhN2+_B3LYPG-6-31G_dp-d09-49-n800
 OpenBabel11261919553D

 13 13  0  0  0  0  0  0  0  0999 V2000
   -1.3432   -0.0995   -0.0618 C   0  0  0  0  0  0  0  0  0  0  0  0
   -2.7146   -0.1634   -0.1071 N   0  0  0  0  0  0  0  0  0  0  0  0
   -3.8280   -0.2159   -0.1441 N   0  0  0  0  0  0  0  0  0  0  0  0
   -0.7341    1.1674   -0.0397 C   0  0  0  0  0  0  0  0  0  0  0  0
    0.6435    1.2405    0.0062 C   0  0  0  0  0  0  0  0  0  0  0  0
    1.3891    0.0503    0.0293 C   0  0  0  0  0  0  0  0  0  0  0  0
    0.7687   -1.2089    0.0067 C   0  0  0  0  0  0  0  0  0  0  0  0
   -0.6129   -1.3092   -0.0394 C   0  0  0  0  0  0  0  0  0  0  0  0
   -1.5775    2.3842   -0.0660 H   0  0  0  0  0  0  0  0  0  0  0  0
    1.1409    2.2034    0.0242 H   0  0  0  0  0  0  0  0  0  0  0  0
    2.4731    0.1073    0.0659 H   0  0  0  0  0  0  0  0  0  0  0  0
    1.3684   -2.1121    0.0253 H   0  0  0  0  0  0  0  0  0  0  0  0
   -1.1218   -2.2669   -0.0577 H   0  0  0  0  0  0  0  0  0  0  0  0
  1  4  2  0  0  0  0
  1  8  1  0  0  0  0
  2  1  1  0  0  0  0
  3  2  1  0  0  0  0
  4  5  1  0  0  0  0
  5 10  1  0  0  0  0
  5  6  2  0  0  0  0
  6 11  1  0  0  0  0
  7 12  1  0  0  0  0
  7  6  1  0  0  0  0
  8  7  2  0  0  0  0
  9  4  1  0  0  0  0
 13  8  1  0  0  0  0
M  RAD  2   2   2   3   3
M  END
