Coordinates from ORCA-job PhN2+_B3LYPG-6-31G_dp-d09-49-n800
 OpenBabel11261919553D

 13 13  0  0  0  0  0  0  0  0999 V2000
   -1.3434   -0.0991   -0.0618 C   0  0  0  0  0  0  0  0  0  0  0  0
   -2.7147   -0.1633   -0.1071 N   0  0  0  0  0  0  0  0  0  0  0  0
   -3.8282   -0.2159   -0.1441 N   0  0  0  0  0  0  0  0  0  0  0  0
   -0.7345    1.1680   -0.0398 C   0  0  0  0  0  0  0  0  0  0  0  0
    0.6432    1.2407    0.0062 C   0  0  0  0  0  0  0  0  0  0  0  0
    1.3889    0.0506    0.0293 C   0  0  0  0  0  0  0  0  0  0  0  0
    0.7685   -1.2086    0.0067 C   0  0  0  0  0  0  0  0  0  0  0  0
   -0.6131   -1.3088   -0.0394 C   0  0  0  0  0  0  0  0  0  0  0  0
   -1.5749    2.3807   -0.0659 H   0  0  0  0  0  0  0  0  0  0  0  0
    1.1406    2.2036    0.0242 H   0  0  0  0  0  0  0  0  0  0  0  0
    2.4728    0.1076    0.0659 H   0  0  0  0  0  0  0  0  0  0  0  0
    1.3682   -2.1118    0.0253 H   0  0  0  0  0  0  0  0  0  0  0  0
   -1.1220   -2.2666   -0.0577 H   0  0  0  0  0  0  0  0  0  0  0  0
  1  4  2  0  0  0  0
  1  8  1  0  0  0  0
  2  1  1  0  0  0  0
  3  2  1  0  0  0  0
  4  5  1  0  0  0  0
  5 10  1  0  0  0  0
  5  6  2  0  0  0  0
  6 11  1  0  0  0  0
  7 12  1  0  0  0  0
  7  6  1  0  0  0  0
  8  7  2  0  0  0  0
  9  4  1  0  0  0  0
 13  8  1  0  0  0  0
M  RAD  2   2   2   3   3
M  END
