Coordinates from ORCA-job PhN2+_B3LYPG-6-31G_dp-d09-49-n800
 OpenBabel11261919563D

 13 12  0  0  0  0  0  0  0  0999 V2000
   -1.2650   -0.2162   -0.0596 C   0  0  0  0  0  0  0  0  0  0  0  0
   -2.6398   -0.2553   -0.1051 N   0  0  0  0  0  0  0  0  0  0  0  0
   -3.7535   -0.2878   -0.1420 N   0  0  0  0  0  0  0  0  0  0  0  0
   -0.6214    1.0173   -0.0366 C   0  0  0  0  0  0  0  0  0  0  0  0
    0.7396    1.1235    0.0089 C   0  0  0  0  0  0  0  0  0  0  0  0
    1.4750   -0.0822    0.0320 C   0  0  0  0  0  0  0  0  0  0  0  0
    0.8423   -1.3371    0.0092 C   0  0  0  0  0  0  0  0  0  0  0  0
   -0.5379   -1.4358   -0.0371 C   0  0  0  0  0  0  0  0  0  0  0  0
   -2.5865    3.8318   -0.0967 H   0  0  0  0  0  0  0  0  0  0  0  0
    1.2513    2.0817    0.0272 H   0  0  0  0  0  0  0  0  0  0  0  0
    2.5604   -0.0293    0.0688 H   0  0  0  0  0  0  0  0  0  0  0  0
    1.4402   -2.2418    0.0280 H   0  0  0  0  0  0  0  0  0  0  0  0
   -1.0532   -2.3917   -0.0555 H   0  0  0  0  0  0  0  0  0  0  0  0
  1  8  2  0  0  0  0
  1  4  1  0  0  0  0
  2  1  1  0  0  0  0
  3  2  1  0  0  0  0
  4  5  2  0  0  0  0
  5 10  1  0  0  0  0
  5  6  1  0  0  0  0
  6 11  1  0  0  0  0
  7 12  1  0  0  0  0
  7  6  2  0  0  0  0
  8  7  1  0  0  0  0
 13  8  1  0  0  0  0
M  RAD  4   2   2   3   3   4   2   9   2
M  END
