Coordinates from ORCA-job PhN2+_B3LYPG-6-31G_dp-d09-49-n800
 OpenBabel11261919563D

 13 12  0  0  0  0  0  0  0  0999 V2000
   -1.2845   -0.1809   -0.0599 C   0  0  0  0  0  0  0  0  0  0  0  0
   -2.6576   -0.2139   -0.1052 N   0  0  0  0  0  0  0  0  0  0  0  0
   -3.7712   -0.2421   -0.1428 N   0  0  0  0  0  0  0  0  0  0  0  0
   -0.6343    1.0504   -0.0366 C   0  0  0  0  0  0  0  0  0  0  0  0
    0.7263    1.1568    0.0088 C   0  0  0  0  0  0  0  0  0  0  0  0
    1.4577   -0.0509    0.0314 C   0  0  0  0  0  0  0  0  0  0  0  0
    0.8223   -1.3041    0.0084 C   0  0  0  0  0  0  0  0  0  0  0  0
   -0.5587   -1.4002   -0.0377 C   0  0  0  0  0  0  0  0  0  0  0  0
   -2.3701    3.4134   -0.0907 H   0  0  0  0  0  0  0  0  0  0  0  0
    1.2359    2.1152    0.0271 H   0  0  0  0  0  0  0  0  0  0  0  0
    2.5430   -0.0010    0.0680 H   0  0  0  0  0  0  0  0  0  0  0  0
    1.4179   -2.2103    0.0269 H   0  0  0  0  0  0  0  0  0  0  0  0
   -1.0752   -2.3552   -0.0562 H   0  0  0  0  0  0  0  0  0  0  0  0
  1  8  2  0  0  0  0
  1  4  1  0  0  0  0
  2  1  1  0  0  0  0
  3  2  1  0  0  0  0
  4  5  2  0  0  0  0
  5 10  1  0  0  0  0
  5  6  1  0  0  0  0
  6 11  1  0  0  0  0
  7 12  1  0  0  0  0
  7  6  2  0  0  0  0
  8  7  1  0  0  0  0
 13  8  1  0  0  0  0
M  RAD  4   2   2   3   3   4   2   9   2
M  END
