Coordinates from ORCA-job PhN2+_B3LYPG-6-31G_dp-d09-49-n800
 OpenBabel11261919563D

 13 12  0  0  0  0  0  0  0  0999 V2000
   -1.2566   -0.2439   -0.0596 C   0  0  0  0  0  0  0  0  0  0  0  0
   -2.6321   -0.2916   -0.1052 N   0  0  0  0  0  0  0  0  0  0  0  0
   -3.7457   -0.3301   -0.1421 N   0  0  0  0  0  0  0  0  0  0  0  0
   -0.6229    0.9945   -0.0370 C   0  0  0  0  0  0  0  0  0  0  0  0
    0.7385    1.1045    0.0086 C   0  0  0  0  0  0  0  0  0  0  0  0
    1.4809   -0.0968    0.0322 C   0  0  0  0  0  0  0  0  0  0  0  0
    0.8549   -1.3552    0.0097 C   0  0  0  0  0  0  0  0  0  0  0  0
   -0.5245   -1.4608   -0.0365 C   0  0  0  0  0  0  0  0  0  0  0  0
   -2.6766    4.1058   -0.0983 H   0  0  0  0  0  0  0  0  0  0  0  0
    1.2473    2.0645    0.0267 H   0  0  0  0  0  0  0  0  0  0  0  0
    2.5660   -0.0379    0.0690 H   0  0  0  0  0  0  0  0  0  0  0  0
    1.4577   -2.2567    0.0290 H   0  0  0  0  0  0  0  0  0  0  0  0
   -1.0354   -2.4191   -0.0547 H   0  0  0  0  0  0  0  0  0  0  0  0
  1  4  2  0  0  0  0
  1  8  1  0  0  0  0
  2  1  1  0  0  0  0
  3  2  1  0  0  0  0
  4  5  1  0  0  0  0
  5 10  1  0  0  0  0
  5  6  2  0  0  0  0
  6 11  1  0  0  0  0
  7 12  1  0  0  0  0
  7  6  1  0  0  0  0
  8  7  2  0  0  0  0
 13  8  1  0  0  0  0
M  RAD  4   2   2   3   3   4   2   9   2
M  END
