Coordinates from ORCA-job PhN2+_B3LYPG-6-31G_dp-d09-49-n800
 OpenBabel11261919563D

 13 12  0  0  0  0  0  0  0  0999 V2000
   -1.3123   -0.1485   -0.0609 C   0  0  0  0  0  0  0  0  0  0  0  0
   -2.6835   -0.1875   -0.1062 N   0  0  0  0  0  0  0  0  0  0  0  0
   -3.7970   -0.2210   -0.1429 N   0  0  0  0  0  0  0  0  0  0  0  0
   -0.6698    1.0902   -0.0378 C   0  0  0  0  0  0  0  0  0  0  0  0
    0.6937    1.1957    0.0078 C   0  0  0  0  0  0  0  0  0  0  0  0
    1.4289   -0.0072    0.0306 C   0  0  0  0  0  0  0  0  0  0  0  0
    0.7991   -1.2630    0.0076 C   0  0  0  0  0  0  0  0  0  0  0  0
   -0.5822   -1.3629   -0.0385 C   0  0  0  0  0  0  0  0  0  0  0  0
   -2.0374    2.9660   -0.0805 H   0  0  0  0  0  0  0  0  0  0  0  0
    1.1954    2.1570    0.0259 H   0  0  0  0  0  0  0  0  0  0  0  0
    2.5137    0.0453    0.0672 H   0  0  0  0  0  0  0  0  0  0  0  0
    1.3973   -2.1673    0.0262 H   0  0  0  0  0  0  0  0  0  0  0  0
   -1.0943   -2.3198   -0.0569 H   0  0  0  0  0  0  0  0  0  0  0  0
  1  8  2  0  0  0  0
  1  4  1  0  0  0  0
  2  1  1  0  0  0  0
  3  2  1  0  0  0  0
  4  5  2  0  0  0  0
  5 10  1  0  0  0  0
  5  6  1  0  0  0  0
  6 11  1  0  0  0  0
  7 12  1  0  0  0  0
  7  6  2  0  0  0  0
  8  7  1  0  0  0  0
 13  8  1  0  0  0  0
M  RAD  4   2   2   3   3   4   2   9   2
M  END
