Coordinates from ORCA-job PhN2+_B3LYPG-6-31G_dp-d09-49-n800
 OpenBabel11261919553D

 13 13  0  0  0  0  0  0  0  0999 V2000
   -1.3509   -0.0830   -0.0619 C   0  0  0  0  0  0  0  0  0  0  0  0
   -2.7232   -0.1552   -0.1072 N   0  0  0  0  0  0  0  0  0  0  0  0
   -3.8365   -0.2138   -0.1450 N   0  0  0  0  0  0  0  0  0  0  0  0
   -0.7539    1.1938   -0.0402 C   0  0  0  0  0  0  0  0  0  0  0  0
    0.6286    1.2528    0.0057 C   0  0  0  0  0  0  0  0  0  0  0  0
    1.3783    0.0666    0.0288 C   0  0  0  0  0  0  0  0  0  0  0  0
    0.7599   -1.1929    0.0064 C   0  0  0  0  0  0  0  0  0  0  0  0
   -0.6219   -1.2920   -0.0395 C   0  0  0  0  0  0  0  0  0  0  0  0
   -1.4456    2.2050   -0.0616 H   0  0  0  0  0  0  0  0  0  0  0  0
    1.1262    2.2160    0.0237 H   0  0  0  0  0  0  0  0  0  0  0  0
    2.4620    0.1255    0.0653 H   0  0  0  0  0  0  0  0  0  0  0  0
    1.3595   -2.0963    0.0250 H   0  0  0  0  0  0  0  0  0  0  0  0
   -1.1309   -2.2495   -0.0577 H   0  0  0  0  0  0  0  0  0  0  0  0
  1  4  2  0  0  0  0
  1  8  1  0  0  0  0
  2  1  1  0  0  0  0
  3  2  1  0  0  0  0
  4  5  1  0  0  0  0
  5 10  1  0  0  0  0
  5  6  2  0  0  0  0
  6 11  1  0  0  0  0
  7 12  1  0  0  0  0
  7  6  1  0  0  0  0
  8  7  2  0  0  0  0
  9  4  1  0  0  0  0
 13  8  1  0  0  0  0
M  RAD  2   2   2   3   3
M  END
