Coordinates from ORCA-job PhN2+_B3LYPG-6-31G_dp-d09-49-n800
 OpenBabel11261919553D

 13 13  0  0  0  0  0  0  0  0999 V2000
   -1.3469   -0.0917   -0.0619 C   0  0  0  0  0  0  0  0  0  0  0  0
   -2.7186   -0.1598   -0.1072 N   0  0  0  0  0  0  0  0  0  0  0  0
   -3.8320   -0.2154   -0.1444 N   0  0  0  0  0  0  0  0  0  0  0  0
   -0.7436    1.1800   -0.0400 C   0  0  0  0  0  0  0  0  0  0  0  0
    0.6365    1.2463    0.0060 C   0  0  0  0  0  0  0  0  0  0  0  0
    1.3839    0.0580    0.0291 C   0  0  0  0  0  0  0  0  0  0  0  0
    0.7645   -1.2014    0.0065 C   0  0  0  0  0  0  0  0  0  0  0  0
   -0.6172   -1.3011   -0.0395 C   0  0  0  0  0  0  0  0  0  0  0  0
   -1.5149    2.3005   -0.0640 H   0  0  0  0  0  0  0  0  0  0  0  0
    1.1339    2.2092    0.0240 H   0  0  0  0  0  0  0  0  0  0  0  0
    2.4677    0.1158    0.0656 H   0  0  0  0  0  0  0  0  0  0  0  0
    1.3642   -2.1047    0.0252 H   0  0  0  0  0  0  0  0  0  0  0  0
   -1.1261   -2.2587   -0.0577 H   0  0  0  0  0  0  0  0  0  0  0  0
  1  4  2  0  0  0  0
  1  8  1  0  0  0  0
  2  1  1  0  0  0  0
  3  2  1  0  0  0  0
  4  5  1  0  0  0  0
  5 10  1  0  0  0  0
  5  6  2  0  0  0  0
  6 11  1  0  0  0  0
  7 12  1  0  0  0  0
  7  6  1  0  0  0  0
  8  7  2  0  0  0  0
  9  4  1  0  0  0  0
 13  8  1  0  0  0  0
M  RAD  2   2   2   3   3
M  END
