Coordinates from ORCA-job PhN2+_B3LYPG-6-31G_dp-d09-49-n800
 OpenBabel11261919563D

 13 12  0  0  0  0  0  0  0  0999 V2000
   -1.3061   -0.1559   -0.0607 C   0  0  0  0  0  0  0  0  0  0  0  0
   -2.6777   -0.1925   -0.1060 N   0  0  0  0  0  0  0  0  0  0  0  0
   -3.7913   -0.2240   -0.1427 N   0  0  0  0  0  0  0  0  0  0  0  0
   -0.6606    1.0801   -0.0375 C   0  0  0  0  0  0  0  0  0  0  0  0
    0.7017    1.1872    0.0080 C   0  0  0  0  0  0  0  0  0  0  0  0
    1.4357   -0.0173    0.0308 C   0  0  0  0  0  0  0  0  0  0  0  0
    0.8044   -1.2723    0.0078 C   0  0  0  0  0  0  0  0  0  0  0  0
   -0.5769   -1.3714   -0.0383 C   0  0  0  0  0  0  0  0  0  0  0  0
   -2.1153    3.0658   -0.0829 H   0  0  0  0  0  0  0  0  0  0  0  0
    1.2051    2.1479    0.0262 H   0  0  0  0  0  0  0  0  0  0  0  0
    2.5207    0.0346    0.0674 H   0  0  0  0  0  0  0  0  0  0  0  0
    1.4019   -2.1771    0.0264 H   0  0  0  0  0  0  0  0  0  0  0  0
   -1.0900   -2.3279   -0.0568 H   0  0  0  0  0  0  0  0  0  0  0  0
  1  8  2  0  0  0  0
  1  4  1  0  0  0  0
  2  1  1  0  0  0  0
  3  2  1  0  0  0  0
  4  5  2  0  0  0  0
  5 10  1  0  0  0  0
  5  6  1  0  0  0  0
  6 11  1  0  0  0  0
  7 12  1  0  0  0  0
  7  6  2  0  0  0  0
  8  7  1  0  0  0  0
 13  8  1  0  0  0  0
M  RAD  4   2   2   3   3   4   2   9   2
M  END
