Coordinates from ORCA-job PhN2+_B3LYPG-6-31G_dp-d09-49-n800
 OpenBabel11261919553D

 13 13  0  0  0  0  0  0  0  0999 V2000
   -1.3532   -0.0782   -0.0618 C   0  0  0  0  0  0  0  0  0  0  0  0
   -2.7258   -0.1524   -0.1071 N   0  0  0  0  0  0  0  0  0  0  0  0
   -3.8390   -0.2124   -0.1456 N   0  0  0  0  0  0  0  0  0  0  0  0
   -0.7594    1.2011   -0.0403 C   0  0  0  0  0  0  0  0  0  0  0  0
    0.6244    1.2565    0.0055 C   0  0  0  0  0  0  0  0  0  0  0  0
    1.3752    0.0715    0.0287 C   0  0  0  0  0  0  0  0  0  0  0  0
    0.7574   -1.1881    0.0063 C   0  0  0  0  0  0  0  0  0  0  0  0
   -0.6246   -1.2870   -0.0395 C   0  0  0  0  0  0  0  0  0  0  0  0
   -1.4075    2.1512   -0.0603 H   0  0  0  0  0  0  0  0  0  0  0  0
    1.1218    2.2199    0.0235 H   0  0  0  0  0  0  0  0  0  0  0  0
    2.4588    0.1309    0.0650 H   0  0  0  0  0  0  0  0  0  0  0  0
    1.3569   -2.0915    0.0249 H   0  0  0  0  0  0  0  0  0  0  0  0
   -1.1336   -2.2444   -0.0576 H   0  0  0  0  0  0  0  0  0  0  0  0
  1  4  2  0  0  0  0
  1  8  1  0  0  0  0
  2  1  1  0  0  0  0
  3  2  1  0  0  0  0
  4  5  1  0  0  0  0
  5 10  1  0  0  0  0
  5  6  2  0  0  0  0
  6 11  1  0  0  0  0
  7 12  1  0  0  0  0
  7  6  1  0  0  0  0
  8  7  2  0  0  0  0
  9  4  1  0  0  0  0
 13  8  1  0  0  0  0
M  RAD  2   2   2   3   3
M  END
