Coordinates from ORCA-job PhN2+_B3LYPG-6-31G_dp-d09-49-n800
 OpenBabel11261919563D

 13 12  0  0  0  0  0  0  0  0999 V2000
   -1.2562   -0.2459   -0.0596 C   0  0  0  0  0  0  0  0  0  0  0  0
   -2.6317   -0.2940   -0.1053 N   0  0  0  0  0  0  0  0  0  0  0  0
   -3.7453   -0.3330   -0.1421 N   0  0  0  0  0  0  0  0  0  0  0  0
   -0.6229    0.9925   -0.0371 C   0  0  0  0  0  0  0  0  0  0  0  0
    0.7382    1.1033    0.0086 C   0  0  0  0  0  0  0  0  0  0  0  0
    1.4812   -0.0976    0.0322 C   0  0  0  0  0  0  0  0  0  0  0  0
    0.8558   -1.3564    0.0098 C   0  0  0  0  0  0  0  0  0  0  0  0
   -0.5236   -1.4625   -0.0365 C   0  0  0  0  0  0  0  0  0  0  0  0
   -2.6819    4.1244   -0.0984 H   0  0  0  0  0  0  0  0  0  0  0  0
    1.2467    2.0636    0.0266 H   0  0  0  0  0  0  0  0  0  0  0  0
    2.5663   -0.0383    0.0690 H   0  0  0  0  0  0  0  0  0  0  0  0
    1.4589   -2.2576    0.0291 H   0  0  0  0  0  0  0  0  0  0  0  0
   -1.0341   -2.4211   -0.0546 H   0  0  0  0  0  0  0  0  0  0  0  0
  1  4  2  0  0  0  0
  1  8  1  0  0  0  0
  2  1  1  0  0  0  0
  3  2  1  0  0  0  0
  4  5  1  0  0  0  0
  5 10  1  0  0  0  0
  5  6  2  0  0  0  0
  6 11  1  0  0  0  0
  7 12  1  0  0  0  0
  7  6  1  0  0  0  0
  8  7  2  0  0  0  0
 13  8  1  0  0  0  0
M  RAD  4   2   2   3   3   4   2   9   2
M  END
