Coordinates from ORCA-job PhN2+_B3LYPG-6-31G_dp-d09-49-n800
 OpenBabel11261919563D

 13 12  0  0  0  0  0  0  0  0999 V2000
   -1.2879   -0.1767   -0.0602 C   0  0  0  0  0  0  0  0  0  0  0  0
   -2.6607   -0.2097   -0.1056 N   0  0  0  0  0  0  0  0  0  0  0  0
   -3.7744   -0.2380   -0.1423 N   0  0  0  0  0  0  0  0  0  0  0  0
   -0.6378    1.0549   -0.0368 C   0  0  0  0  0  0  0  0  0  0  0  0
    0.7228    1.1618    0.0087 C   0  0  0  0  0  0  0  0  0  0  0  0
    1.4544   -0.0457    0.0314 C   0  0  0  0  0  0  0  0  0  0  0  0
    0.8194   -1.2991    0.0083 C   0  0  0  0  0  0  0  0  0  0  0  0
   -0.5617   -1.3954   -0.0379 C   0  0  0  0  0  0  0  0  0  0  0  0
   -2.3313    3.3558   -0.0896 H   0  0  0  0  0  0  0  0  0  0  0  0
    1.2316    2.1205    0.0270 H   0  0  0  0  0  0  0  0  0  0  0  0
    2.5397    0.0045    0.0681 H   0  0  0  0  0  0  0  0  0  0  0  0
    1.4152   -2.2051    0.0269 H   0  0  0  0  0  0  0  0  0  0  0  0
   -1.0778   -2.3506   -0.0564 H   0  0  0  0  0  0  0  0  0  0  0  0
  1  8  2  0  0  0  0
  1  4  1  0  0  0  0
  2  1  1  0  0  0  0
  3  2  1  0  0  0  0
  4  5  2  0  0  0  0
  5 10  1  0  0  0  0
  5  6  1  0  0  0  0
  6 11  1  0  0  0  0
  7 12  1  0  0  0  0
  7  6  2  0  0  0  0
  8  7  1  0  0  0  0
 13  8  1  0  0  0  0
M  RAD  4   2   2   3   3   4   2   9   2
M  END
