Coordinates from ORCA-job PhN2+_B3LYPG-6-31G_dp-d09-49-n800
 OpenBabel11261919563D

 13 12  0  0  0  0  0  0  0  0999 V2000
   -1.2739   -0.1974   -0.0597 C   0  0  0  0  0  0  0  0  0  0  0  0
   -2.6479   -0.2321   -0.1053 N   0  0  0  0  0  0  0  0  0  0  0  0
   -3.7616   -0.2618   -0.1421 N   0  0  0  0  0  0  0  0  0  0  0  0
   -0.6255    1.0340   -0.0365 C   0  0  0  0  0  0  0  0  0  0  0  0
    0.7351    1.1398    0.0090 C   0  0  0  0  0  0  0  0  0  0  0  0
    1.4675   -0.0677    0.0318 C   0  0  0  0  0  0  0  0  0  0  0  0
    0.8323   -1.3211    0.0088 C   0  0  0  0  0  0  0  0  0  0  0  0
   -0.5484   -1.4174   -0.0374 C   0  0  0  0  0  0  0  0  0  0  0  0
   -2.4890    3.6199   -0.0942 H   0  0  0  0  0  0  0  0  0  0  0  0
    1.2467    2.0976    0.0273 H   0  0  0  0  0  0  0  0  0  0  0  0
    2.5530   -0.0172    0.0685 H   0  0  0  0  0  0  0  0  0  0  0  0
    1.4283   -2.2270    0.0274 H   0  0  0  0  0  0  0  0  0  0  0  0
   -1.0650   -2.3725   -0.0559 H   0  0  0  0  0  0  0  0  0  0  0  0
  1  8  2  0  0  0  0
  1  4  1  0  0  0  0
  2  1  1  0  0  0  0
  3  2  1  0  0  0  0
  4  5  2  0  0  0  0
  5 10  1  0  0  0  0
  5  6  1  0  0  0  0
  6 11  1  0  0  0  0
  7 12  1  0  0  0  0
  7  6  2  0  0  0  0
  8  7  1  0  0  0  0
 13  8  1  0  0  0  0
M  RAD  4   2   2   3   3   4   2   9   2
M  END
