Coordinates from ORCA-job PhN2+_B3LYPG-6-31G_dp-d09-49-n800
 OpenBabel11261919563D

 13 12  0  0  0  0  0  0  0  0999 V2000
   -1.3259   -0.1301   -0.0613 C   0  0  0  0  0  0  0  0  0  0  0  0
   -2.6967   -0.1772   -0.1067 N   0  0  0  0  0  0  0  0  0  0  0  0
   -3.8102   -0.2171   -0.1434 N   0  0  0  0  0  0  0  0  0  0  0  0
   -0.6940    1.1177   -0.0386 C   0  0  0  0  0  0  0  0  0  0  0  0
    0.6738    1.2149    0.0071 C   0  0  0  0  0  0  0  0  0  0  0  0
    1.4125    0.0164    0.0300 C   0  0  0  0  0  0  0  0  0  0  0  0
    0.7867   -1.2410    0.0072 C   0  0  0  0  0  0  0  0  0  0  0  0
   -0.5947   -1.3422   -0.0389 C   0  0  0  0  0  0  0  0  0  0  0  0
   -1.8508    2.7320   -0.0744 H   0  0  0  0  0  0  0  0  0  0  0  0
    1.1725    2.1772    0.0251 H   0  0  0  0  0  0  0  0  0  0  0  0
    2.4970    0.0706    0.0667 H   0  0  0  0  0  0  0  0  0  0  0  0
    1.3860   -2.1445    0.0259 H   0  0  0  0  0  0  0  0  0  0  0  0
   -1.1047   -2.2998   -0.0572 H   0  0  0  0  0  0  0  0  0  0  0  0
  1  8  2  0  0  0  0
  1  4  1  0  0  0  0
  2  1  1  0  0  0  0
  3  2  1  0  0  0  0
  4  5  2  0  0  0  0
  5 10  1  0  0  0  0
  5  6  1  0  0  0  0
  6 11  1  0  0  0  0
  7 12  1  0  0  0  0
  7  6  2  0  0  0  0
  8  7  1  0  0  0  0
 13  8  1  0  0  0  0
M  RAD  4   2   2   3   3   4   2   9   2
M  END
