Coordinates from ORCA-job PhN2+_B3LYPG-6-31G_dp-d09-49-n800
 OpenBabel11261919563D

 13 12  0  0  0  0  0  0  0  0999 V2000
   -1.2931   -0.1702   -0.0604 C   0  0  0  0  0  0  0  0  0  0  0  0
   -2.6656   -0.2036   -0.1054 N   0  0  0  0  0  0  0  0  0  0  0  0
   -3.7792   -0.2321   -0.1419 N   0  0  0  0  0  0  0  0  0  0  0  0
   -0.6434    1.0618   -0.0369 C   0  0  0  0  0  0  0  0  0  0  0  0
    0.7174    1.1694    0.0087 C   0  0  0  0  0  0  0  0  0  0  0  0
    1.4493   -0.0376    0.0313 C   0  0  0  0  0  0  0  0  0  0  0  0
    0.8150   -1.2912    0.0080 C   0  0  0  0  0  0  0  0  0  0  0  0
   -0.5662   -1.3882   -0.0381 C   0  0  0  0  0  0  0  0  0  0  0  0
   -2.2713    3.2681   -0.0883 H   0  0  0  0  0  0  0  0  0  0  0  0
    1.2247    2.1286    0.0270 H   0  0  0  0  0  0  0  0  0  0  0  0
    2.5345    0.0128    0.0680 H   0  0  0  0  0  0  0  0  0  0  0  0
    1.4111   -2.1970    0.0265 H   0  0  0  0  0  0  0  0  0  0  0  0
   -1.0816   -2.3437   -0.0568 H   0  0  0  0  0  0  0  0  0  0  0  0
  1  8  2  0  0  0  0
  1  4  1  0  0  0  0
  2  1  1  0  0  0  0
  3  2  1  0  0  0  0
  4  5  2  0  0  0  0
  5 10  1  0  0  0  0
  5  6  1  0  0  0  0
  6 11  1  0  0  0  0
  7 12  1  0  0  0  0
  7  6  2  0  0  0  0
  8  7  1  0  0  0  0
 13  8  1  0  0  0  0
M  RAD  4   2   2   3   3   4   2   9   2
M  END
