Coordinates from ORCA-job PhN2+_B3LYPG-6-31G_dp-d09-49-n800
 OpenBabel11261919563D

 13 12  0  0  0  0  0  0  0  0999 V2000
   -1.2521   -0.3871   -0.0602 C   0  0  0  0  0  0  0  0  0  0  0  0
   -2.6259   -0.4984   -0.1059 N   0  0  0  0  0  0  0  0  0  0  0  0
   -3.7370   -0.5833   -0.1427 N   0  0  0  0  0  0  0  0  0  0  0  0
   -0.6848    0.8829   -0.0400 C   0  0  0  0  0  0  0  0  0  0  0  0
    0.6732    1.0480    0.0059 C   0  0  0  0  0  0  0  0  0  0  0  0
    1.4713   -0.1161    0.0320 C   0  0  0  0  0  0  0  0  0  0  0  0
    0.9045   -1.4029    0.0116 C   0  0  0  0  0  0  0  0  0  0  0  0
   -0.4681   -1.5714   -0.0349 C   0  0  0  0  0  0  0  0  0  0  0  0
   -2.7370    5.2105   -0.0967 H   0  0  0  0  0  0  0  0  0  0  0  0
    1.1414    2.0292    0.0224 H   0  0  0  0  0  0  0  0  0  0  0  0
    2.5526   -0.0071    0.0690 H   0  0  0  0  0  0  0  0  0  0  0  0
    1.5486   -2.2753    0.0327 H   0  0  0  0  0  0  0  0  0  0  0  0
   -0.9351   -2.5520   -0.0515 H   0  0  0  0  0  0  0  0  0  0  0  0
  1  4  2  0  0  0  0
  1  8  1  0  0  0  0
  2  1  1  0  0  0  0
  3  2  1  0  0  0  0
  4  5  1  0  0  0  0
  5 10  1  0  0  0  0
  5  6  2  0  0  0  0
  6 11  1  0  0  0  0
  7  6  1  0  0  0  0
  7 12  1  0  0  0  0
  8  7  2  0  0  0  0
 13  8  1  0  0  0  0
M  RAD  4   2   2   3   3   4   2   9   2
M  END
