Coordinates from ORCA-job PhN2+_B3LYPG-6-31G_dp-d09-49-n800
 OpenBabel11261919563D

 13 12  0  0  0  0  0  0  0  0999 V2000
   -1.3073   -0.1546   -0.0607 C   0  0  0  0  0  0  0  0  0  0  0  0
   -2.6788   -0.1916   -0.1061 N   0  0  0  0  0  0  0  0  0  0  0  0
   -3.7923   -0.2234   -0.1427 N   0  0  0  0  0  0  0  0  0  0  0  0
   -0.6622    1.0819   -0.0375 C   0  0  0  0  0  0  0  0  0  0  0  0
    0.7003    1.1887    0.0080 C   0  0  0  0  0  0  0  0  0  0  0  0
    1.4345   -0.0155    0.0307 C   0  0  0  0  0  0  0  0  0  0  0  0
    0.8034   -1.2706    0.0077 C   0  0  0  0  0  0  0  0  0  0  0  0
   -0.5778   -1.3699   -0.0384 C   0  0  0  0  0  0  0  0  0  0  0  0
   -2.1014    3.0479   -0.0824 H   0  0  0  0  0  0  0  0  0  0  0  0
    1.2034    2.1495    0.0262 H   0  0  0  0  0  0  0  0  0  0  0  0
    2.5194    0.0365    0.0674 H   0  0  0  0  0  0  0  0  0  0  0  0
    1.4011   -2.1753    0.0264 H   0  0  0  0  0  0  0  0  0  0  0  0
   -1.0908   -2.3265   -0.0568 H   0  0  0  0  0  0  0  0  0  0  0  0
  1  8  2  0  0  0  0
  1  4  1  0  0  0  0
  2  1  1  0  0  0  0
  3  2  1  0  0  0  0
  4  5  2  0  0  0  0
  5 10  1  0  0  0  0
  5  6  1  0  0  0  0
  6 11  1  0  0  0  0
  7 12  1  0  0  0  0
  7  6  2  0  0  0  0
  8  7  1  0  0  0  0
 13  8  1  0  0  0  0
M  RAD  4   2   2   3   3   4   2   9   2
M  END
