Coordinates from ORCA-job PhN2+_B3LYPG-6-31G_dp-d09-49-n800
 OpenBabel11261919563D

 13 12  0  0  0  0  0  0  0  0999 V2000
   -1.2640   -0.2192   -0.0597 C   0  0  0  0  0  0  0  0  0  0  0  0
   -2.6389   -0.2590   -0.1055 N   0  0  0  0  0  0  0  0  0  0  0  0
   -3.7526   -0.2921   -0.1414 N   0  0  0  0  0  0  0  0  0  0  0  0
   -0.6211    1.0146   -0.0367 C   0  0  0  0  0  0  0  0  0  0  0  0
    0.7400    1.1214    0.0089 C   0  0  0  0  0  0  0  0  0  0  0  0
    1.4760   -0.0841    0.0321 C   0  0  0  0  0  0  0  0  0  0  0  0
    0.8437   -1.3392    0.0092 C   0  0  0  0  0  0  0  0  0  0  0  0
   -0.5364   -1.4386   -0.0371 C   0  0  0  0  0  0  0  0  0  0  0  0
   -2.5988    3.8630   -0.0970 H   0  0  0  0  0  0  0  0  0  0  0  0
    1.2514    2.0797    0.0273 H   0  0  0  0  0  0  0  0  0  0  0  0
    2.5614   -0.0308    0.0689 H   0  0  0  0  0  0  0  0  0  0  0  0
    1.4420   -2.2436    0.0282 H   0  0  0  0  0  0  0  0  0  0  0  0
   -1.0512   -2.3948   -0.0555 H   0  0  0  0  0  0  0  0  0  0  0  0
  1  8  2  0  0  0  0
  1  4  1  0  0  0  0
  2  1  1  0  0  0  0
  3  2  1  0  0  0  0
  4  5  2  0  0  0  0
  5 10  1  0  0  0  0
  5  6  1  0  0  0  0
  6 11  1  0  0  0  0
  7 12  1  0  0  0  0
  7  6  2  0  0  0  0
  8  7  1  0  0  0  0
 13  8  1  0  0  0  0
M  RAD  4   2   2   3   3   4   2   9   2
M  END
