Coordinates from ORCA-job PhN2+_B3LYPG-6-31G_dp-d09-49-n800
 OpenBabel11261919563D

 13 12  0  0  0  0  0  0  0  0999 V2000
   -1.2604   -0.2297   -0.0596 C   0  0  0  0  0  0  0  0  0  0  0  0
   -2.6356   -0.2727   -0.1052 N   0  0  0  0  0  0  0  0  0  0  0  0
   -3.7492   -0.3082   -0.1421 N   0  0  0  0  0  0  0  0  0  0  0  0
   -0.6214    1.0062   -0.0368 C   0  0  0  0  0  0  0  0  0  0  0  0
    0.7398    1.1137    0.0088 C   0  0  0  0  0  0  0  0  0  0  0  0
    1.4784   -0.0900    0.0321 C   0  0  0  0  0  0  0  0  0  0  0  0
    0.8486   -1.3465    0.0095 C   0  0  0  0  0  0  0  0  0  0  0  0
   -0.5312   -1.4481   -0.0368 C   0  0  0  0  0  0  0  0  0  0  0  0
   -2.6358    3.9691   -0.0976 H   0  0  0  0  0  0  0  0  0  0  0  0
    1.2505    2.0726    0.0270 H   0  0  0  0  0  0  0  0  0  0  0  0
    2.5636   -0.0344    0.0689 H   0  0  0  0  0  0  0  0  0  0  0  0
    1.4487   -2.2498    0.0285 H   0  0  0  0  0  0  0  0  0  0  0  0
   -1.0446   -2.4051   -0.0551 H   0  0  0  0  0  0  0  0  0  0  0  0
  1  4  2  0  0  0  0
  1  8  1  0  0  0  0
  2  1  1  0  0  0  0
  3  2  1  0  0  0  0
  4  5  1  0  0  0  0
  5 10  1  0  0  0  0
  5  6  2  0  0  0  0
  6 11  1  0  0  0  0
  7 12  1  0  0  0  0
  7  6  1  0  0  0  0
  8  7  2  0  0  0  0
 13  8  1  0  0  0  0
M  RAD  4   2   2   3   3   4   2   9   2
M  END
