Coordinates from ORCA-job PhN2+_B3LYPG-6-31G_dp-d09-49-n800
 OpenBabel11261919553D

 13 13  0  0  0  0  0  0  0  0999 V2000
   -1.3483   -0.0888   -0.0619 C   0  0  0  0  0  0  0  0  0  0  0  0
   -2.7202   -0.1583   -0.1072 N   0  0  0  0  0  0  0  0  0  0  0  0
   -3.8335   -0.2150   -0.1446 N   0  0  0  0  0  0  0  0  0  0  0  0
   -0.7470    1.1846   -0.0401 C   0  0  0  0  0  0  0  0  0  0  0  0
    0.6338    1.2484    0.0059 C   0  0  0  0  0  0  0  0  0  0  0  0
    1.3820    0.0609    0.0290 C   0  0  0  0  0  0  0  0  0  0  0  0
    0.7630   -1.1985    0.0065 C   0  0  0  0  0  0  0  0  0  0  0  0
   -0.6188   -1.2980   -0.0395 C   0  0  0  0  0  0  0  0  0  0  0  0
   -1.4917    2.2689   -0.0632 H   0  0  0  0  0  0  0  0  0  0  0  0
    1.1314    2.2115    0.0239 H   0  0  0  0  0  0  0  0  0  0  0  0
    2.4658    0.1190    0.0655 H   0  0  0  0  0  0  0  0  0  0  0  0
    1.3626   -2.1019    0.0251 H   0  0  0  0  0  0  0  0  0  0  0  0
   -1.1277   -2.2556   -0.0577 H   0  0  0  0  0  0  0  0  0  0  0  0
  1  4  2  0  0  0  0
  1  8  1  0  0  0  0
  2  1  1  0  0  0  0
  3  2  1  0  0  0  0
  4  5  1  0  0  0  0
  5 10  1  0  0  0  0
  5  6  2  0  0  0  0
  6 11  1  0  0  0  0
  7 12  1  0  0  0  0
  7  6  1  0  0  0  0
  8  7  2  0  0  0  0
  9  4  1  0  0  0  0
 13  8  1  0  0  0  0
M  RAD  2   2   2   3   3
M  END
