Coordinates from ORCA-job PhN2+_B3LYPG-6-31G_dp-d09-49-n800
 OpenBabel11261919563D

 13 12  0  0  0  0  0  0  0  0999 V2000
   -1.2560   -0.2470   -0.0592 C   0  0  0  0  0  0  0  0  0  0  0  0
   -2.6315   -0.2956   -0.1046 N   0  0  0  0  0  0  0  0  0  0  0  0
   -3.7450   -0.3348   -0.1435 N   0  0  0  0  0  0  0  0  0  0  0  0
   -0.6233    0.9920   -0.0370 C   0  0  0  0  0  0  0  0  0  0  0  0
    0.7382    1.1027    0.0085 C   0  0  0  0  0  0  0  0  0  0  0  0
    1.4814   -0.0981    0.0321 C   0  0  0  0  0  0  0  0  0  0  0  0
    0.8562   -1.3570    0.0098 C   0  0  0  0  0  0  0  0  0  0  0  0
   -0.5231   -1.4634   -0.0362 C   0  0  0  0  0  0  0  0  0  0  0  0
   -2.6847    4.1342   -0.0981 H   0  0  0  0  0  0  0  0  0  0  0  0
    1.2466    2.0630    0.0264 H   0  0  0  0  0  0  0  0  0  0  0  0
    2.5665   -0.0386    0.0687 H   0  0  0  0  0  0  0  0  0  0  0  0
    1.4596   -2.2581    0.0291 H   0  0  0  0  0  0  0  0  0  0  0  0
   -1.0333   -2.4222   -0.0542 H   0  0  0  0  0  0  0  0  0  0  0  0
  1  4  2  0  0  0  0
  1  8  1  0  0  0  0
  2  1  1  0  0  0  0
  3  2  1  0  0  0  0
  4  5  1  0  0  0  0
  5 10  1  0  0  0  0
  5  6  2  0  0  0  0
  6 11  1  0  0  0  0
  7 12  1  0  0  0  0
  7  6  1  0  0  0  0
  8  7  2  0  0  0  0
 13  8  1  0  0  0  0
M  RAD  4   2   2   3   3   4   2   9   2
M  END
