Coordinates from ORCA-job PhN2+_B3LYPG-6-31G_dp-d09-49-n800
 OpenBabel11261919563D

 13 12  0  0  0  0  0  0  0  0999 V2000
   -1.3170   -0.1426   -0.0610 C   0  0  0  0  0  0  0  0  0  0  0  0
   -2.6880   -0.1839   -0.1063 N   0  0  0  0  0  0  0  0  0  0  0  0
   -3.8015   -0.2192   -0.1430 N   0  0  0  0  0  0  0  0  0  0  0  0
   -0.6774    1.0987   -0.0380 C   0  0  0  0  0  0  0  0  0  0  0  0
    0.6873    1.2022    0.0076 C   0  0  0  0  0  0  0  0  0  0  0  0
    1.4235    0.0006    0.0304 C   0  0  0  0  0  0  0  0  0  0  0  0
    0.7950   -1.2557    0.0075 C   0  0  0  0  0  0  0  0  0  0  0  0
   -0.5863   -1.3562   -0.0386 C   0  0  0  0  0  0  0  0  0  0  0  0
   -1.9760    2.8885   -0.0785 H   0  0  0  0  0  0  0  0  0  0  0  0
    1.1878    2.1639    0.0256 H   0  0  0  0  0  0  0  0  0  0  0  0
    2.5082    0.0537    0.0670 H   0  0  0  0  0  0  0  0  0  0  0  0
    1.3936   -2.1597    0.0261 H   0  0  0  0  0  0  0  0  0  0  0  0
   -1.0976   -2.3134   -0.0570 H   0  0  0  0  0  0  0  0  0  0  0  0
  1  8  2  0  0  0  0
  1  4  1  0  0  0  0
  2  1  1  0  0  0  0
  3  2  1  0  0  0  0
  4  5  2  0  0  0  0
  5 10  1  0  0  0  0
  5  6  1  0  0  0  0
  6 11  1  0  0  0  0
  7 12  1  0  0  0  0
  7  6  2  0  0  0  0
  8  7  1  0  0  0  0
 13  8  1  0  0  0  0
M  RAD  4   2   2   3   3   4   2   9   2
M  END
