Coordinates from ORCA-job PhN2+_B3LYPG-6-31G_dp-d09-49-n800
 OpenBabel11261919563D

 13 12  0  0  0  0  0  0  0  0999 V2000
   -1.2503   -0.3546   -0.0601 C   0  0  0  0  0  0  0  0  0  0  0  0
   -2.6251   -0.4495   -0.1060 N   0  0  0  0  0  0  0  0  0  0  0  0
   -3.7371   -0.5217   -0.1429 N   0  0  0  0  0  0  0  0  0  0  0  0
   -0.6666    0.9080   -0.0396 C   0  0  0  0  0  0  0  0  0  0  0  0
    0.6929    1.0577    0.0063 C   0  0  0  0  0  0  0  0  0  0  0  0
    1.4767   -0.1163    0.0321 C   0  0  0  0  0  0  0  0  0  0  0  0
    0.8944   -1.3960    0.0114 C   0  0  0  0  0  0  0  0  0  0  0  0
   -0.4801   -1.5480   -0.0351 C   0  0  0  0  0  0  0  0  0  0  0  0
   -2.7542    4.9837   -0.0972 H   0  0  0  0  0  0  0  0  0  0  0  0
    1.1726    2.0332    0.0231 H   0  0  0  0  0  0  0  0  0  0  0  0
    2.5593   -0.0203    0.0691 H   0  0  0  0  0  0  0  0  0  0  0  0
    1.5278   -2.2762    0.0324 H   0  0  0  0  0  0  0  0  0  0  0  0
   -0.9589   -2.5229   -0.0518 H   0  0  0  0  0  0  0  0  0  0  0  0
  1  4  2  0  0  0  0
  1  8  1  0  0  0  0
  2  1  1  0  0  0  0
  3  2  1  0  0  0  0
  4  5  1  0  0  0  0
  5 10  1  0  0  0  0
  5  6  2  0  0  0  0
  6 11  1  0  0  0  0
  7  6  1  0  0  0  0
  7 12  1  0  0  0  0
  8  7  2  0  0  0  0
 13  8  1  0  0  0  0
M  RAD  4   2   2   3   3   4   2   9   2
M  END
