Coordinates from ORCA-job PhN2+_B3LYPG-6-31G_dp-d09-49-n800
 OpenBabel11261919563D

 13 12  0  0  0  0  0  0  0  0999 V2000
   -1.2499   -0.3105   -0.0598 C   0  0  0  0  0  0  0  0  0  0  0  0
   -2.6255   -0.3849   -0.1056 N   0  0  0  0  0  0  0  0  0  0  0  0
   -3.7383   -0.4420   -0.1432 N   0  0  0  0  0  0  0  0  0  0  0  0
   -0.6449    0.9420   -0.0387 C   0  0  0  0  0  0  0  0  0  0  0  0
    0.7160    1.0731    0.0071 C   0  0  0  0  0  0  0  0  0  0  0  0
    1.4816   -0.1130    0.0322 C   0  0  0  0  0  0  0  0  0  0  0  0
    0.8799   -1.3836    0.0109 C   0  0  0  0  0  0  0  0  0  0  0  0
   -0.4969   -1.5149   -0.0355 C   0  0  0  0  0  0  0  0  0  0  0  0
   -2.7550    4.6586   -0.0980 H   0  0  0  0  0  0  0  0  0  0  0  0
    1.2094    2.0416    0.0243 H   0  0  0  0  0  0  0  0  0  0  0  0
    2.5655   -0.0336    0.0691 H   0  0  0  0  0  0  0  0  0  0  0  0
    1.4998   -2.2734    0.0313 H   0  0  0  0  0  0  0  0  0  0  0  0
   -0.9902   -2.4825   -0.0526 H   0  0  0  0  0  0  0  0  0  0  0  0
  1  4  2  0  0  0  0
  1  8  1  0  0  0  0
  2  1  1  0  0  0  0
  3  2  1  0  0  0  0
  4  5  1  0  0  0  0
  5 10  1  0  0  0  0
  5  6  2  0  0  0  0
  6 11  1  0  0  0  0
  7 12  1  0  0  0  0
  7  6  1  0  0  0  0
  8  7  2  0  0  0  0
 13  8  1  0  0  0  0
M  RAD  4   2   2   3   3   4   2   9   2
M  END
