Coordinates from ORCA-job PhN2+_B3LYPG-6-31G_dp-d09-49-n800
 OpenBabel11261919563D

 13 12  0  0  0  0  0  0  0  0999 V2000
   -1.2499   -0.3304   -0.0600 C   0  0  0  0  0  0  0  0  0  0  0  0
   -2.6253   -0.4135   -0.1060 N   0  0  0  0  0  0  0  0  0  0  0  0
   -3.7378   -0.4769   -0.1431 N   0  0  0  0  0  0  0  0  0  0  0  0
   -0.6539    0.9261   -0.0391 C   0  0  0  0  0  0  0  0  0  0  0  0
    0.7061    1.0660    0.0067 C   0  0  0  0  0  0  0  0  0  0  0  0
    1.4799   -0.1148    0.0321 C   0  0  0  0  0  0  0  0  0  0  0  0
    0.8865   -1.3895    0.0113 C   0  0  0  0  0  0  0  0  0  0  0  0
   -0.4893   -1.5300   -0.0352 C   0  0  0  0  0  0  0  0  0  0  0  0
   -2.7575    4.8066   -0.0975 H   0  0  0  0  0  0  0  0  0  0  0  0
    1.1934    2.0377    0.0236 H   0  0  0  0  0  0  0  0  0  0  0  0
    2.5632   -0.0282    0.0691 H   0  0  0  0  0  0  0  0  0  0  0  0
    1.5124   -2.2751    0.0319 H   0  0  0  0  0  0  0  0  0  0  0  0
   -0.9762   -2.5009   -0.0522 H   0  0  0  0  0  0  0  0  0  0  0  0
  1  4  2  0  0  0  0
  1  8  1  0  0  0  0
  2  1  1  0  0  0  0
  3  2  1  0  0  0  0
  4  5  1  0  0  0  0
  5 10  1  0  0  0  0
  5  6  2  0  0  0  0
  6 11  1  0  0  0  0
  7 12  1  0  0  0  0
  7  6  1  0  0  0  0
  8  7  2  0  0  0  0
 13  8  1  0  0  0  0
M  RAD  4   2   2   3   3   4   2   9   2
M  END
