Coordinates from ORCA-job PhN2+_B3LYPG-6-31G_dp-d09-49-n800
 OpenBabel11261919563D

 13 12  0  0  0  0  0  0  0  0999 V2000
   -1.2641   -0.2184   -0.0596 C   0  0  0  0  0  0  0  0  0  0  0  0
   -2.6390   -0.2580   -0.1051 N   0  0  0  0  0  0  0  0  0  0  0  0
   -3.7526   -0.2911   -0.1421 N   0  0  0  0  0  0  0  0  0  0  0  0
   -0.6214    1.0156   -0.0366 C   0  0  0  0  0  0  0  0  0  0  0  0
    0.7397    1.1218    0.0089 C   0  0  0  0  0  0  0  0  0  0  0  0
    1.4756   -0.0836    0.0320 C   0  0  0  0  0  0  0  0  0  0  0  0
    0.8434   -1.3387    0.0092 C   0  0  0  0  0  0  0  0  0  0  0  0
   -0.5368   -1.4378   -0.0370 C   0  0  0  0  0  0  0  0  0  0  0  0
   -2.5953    3.8545   -0.0968 H   0  0  0  0  0  0  0  0  0  0  0  0
    1.2513    2.0800    0.0272 H   0  0  0  0  0  0  0  0  0  0  0  0
    2.5610   -0.0302    0.0688 H   0  0  0  0  0  0  0  0  0  0  0  0
    1.4416   -2.2432    0.0281 H   0  0  0  0  0  0  0  0  0  0  0  0
   -1.0518   -2.3938   -0.0554 H   0  0  0  0  0  0  0  0  0  0  0  0
  1  8  2  0  0  0  0
  1  4  1  0  0  0  0
  2  1  1  0  0  0  0
  3  2  1  0  0  0  0
  4  5  2  0  0  0  0
  5 10  1  0  0  0  0
  5  6  1  0  0  0  0
  6 11  1  0  0  0  0
  7 12  1  0  0  0  0
  7  6  2  0  0  0  0
  8  7  1  0  0  0  0
 13  8  1  0  0  0  0
M  RAD  4   2   2   3   3   4   2   9   2
M  END
