Coordinates from ORCA-job PhN2+_B3LYPG-6-31G_dp-d09-49-n800
 OpenBabel11261919553D

 13 12  0  0  0  0  0  0  0  0999 V2000
   -1.3383   -0.1093   -0.0617 C   0  0  0  0  0  0  0  0  0  0  0  0
   -2.7093   -0.1677   -0.1070 N   0  0  0  0  0  0  0  0  0  0  0  0
   -3.8227   -0.2161   -0.1438 N   0  0  0  0  0  0  0  0  0  0  0  0
   -0.7216    1.1513   -0.0394 C   0  0  0  0  0  0  0  0  0  0  0  0
    0.6528    1.2330    0.0065 C   0  0  0  0  0  0  0  0  0  0  0  0
    1.3961    0.0402    0.0295 C   0  0  0  0  0  0  0  0  0  0  0  0
    0.7741   -1.2186    0.0068 C   0  0  0  0  0  0  0  0  0  0  0  0
   -0.6074   -1.3195   -0.0393 C   0  0  0  0  0  0  0  0  0  0  0  0
   -1.6598    2.4912   -0.0686 H   0  0  0  0  0  0  0  0  0  0  0  0
    1.1501    2.1958    0.0245 H   0  0  0  0  0  0  0  0  0  0  0  0
    2.4802    0.0962    0.0661 H   0  0  0  0  0  0  0  0  0  0  0  0
    1.3738   -2.1218    0.0255 H   0  0  0  0  0  0  0  0  0  0  0  0
   -1.1164   -2.2774   -0.0576 H   0  0  0  0  0  0  0  0  0  0  0  0
  1  4  2  0  0  0  0
  1  8  1  0  0  0  0
  2  1  1  0  0  0  0
  3  2  1  0  0  0  0
  4  5  1  0  0  0  0
  5 10  1  0  0  0  0
  5  6  2  0  0  0  0
  6 11  1  0  0  0  0
  7 12  1  0  0  0  0
  7  6  1  0  0  0  0
  8  7  2  0  0  0  0
 13  8  1  0  0  0  0
M  RAD  4   2   2   3   3   4   2   9   2
M  END
