Coordinates from ORCA-job PhN2+_B3LYPG-6-31G_dp-d09-49-n800
 OpenBabel11261919553D

 13 13  0  0  0  0  0  0  0  0999 V2000
   -1.3480   -0.0894   -0.0619 C   0  0  0  0  0  0  0  0  0  0  0  0
   -2.7198   -0.1587   -0.1072 N   0  0  0  0  0  0  0  0  0  0  0  0
   -3.8332   -0.2151   -0.1445 N   0  0  0  0  0  0  0  0  0  0  0  0
   -0.7463    1.1836   -0.0401 C   0  0  0  0  0  0  0  0  0  0  0  0
    0.6344    1.2479    0.0059 C   0  0  0  0  0  0  0  0  0  0  0  0
    1.3825    0.0602    0.0290 C   0  0  0  0  0  0  0  0  0  0  0  0
    0.7633   -1.1992    0.0065 C   0  0  0  0  0  0  0  0  0  0  0  0
   -0.6184   -1.2987   -0.0395 C   0  0  0  0  0  0  0  0  0  0  0  0
   -1.4968    2.2759   -0.0634 H   0  0  0  0  0  0  0  0  0  0  0  0
    1.1319    2.2110    0.0239 H   0  0  0  0  0  0  0  0  0  0  0  0
    2.4662    0.1183    0.0656 H   0  0  0  0  0  0  0  0  0  0  0  0
    1.3629   -2.1025    0.0251 H   0  0  0  0  0  0  0  0  0  0  0  0
   -1.1274   -2.2563   -0.0577 H   0  0  0  0  0  0  0  0  0  0  0  0
  1  4  2  0  0  0  0
  1  8  1  0  0  0  0
  2  1  1  0  0  0  0
  3  2  1  0  0  0  0
  4  5  1  0  0  0  0
  5 10  1  0  0  0  0
  5  6  2  0  0  0  0
  6 11  1  0  0  0  0
  7 12  1  0  0  0  0
  7  6  1  0  0  0  0
  8  7  2  0  0  0  0
  9  4  1  0  0  0  0
 13  8  1  0  0  0  0
M  RAD  2   2   2   3   3
M  END
