Coordinates from ORCA-job PhN2+_B3LYPG-6-31G_dp-d09-49-n800
 OpenBabel11261919563D

 13 12  0  0  0  0  0  0  0  0999 V2000
   -1.2548   -0.2536   -0.0608 C   0  0  0  0  0  0  0  0  0  0  0  0
   -2.6302   -0.3048   -0.1078 N   0  0  0  0  0  0  0  0  0  0  0  0
   -3.7440   -0.3456   -0.1371 N   0  0  0  0  0  0  0  0  0  0  0  0
   -0.6249    0.9871   -0.0378 C   0  0  0  0  0  0  0  0  0  0  0  0
    0.7368    1.0990    0.0087 C   0  0  0  0  0  0  0  0  0  0  0  0
    1.4819   -0.1005    0.0328 C   0  0  0  0  0  0  0  0  0  0  0  0
    0.8588   -1.3604    0.0099 C   0  0  0  0  0  0  0  0  0  0  0  0
   -0.5201   -1.4690   -0.0373 C   0  0  0  0  0  0  0  0  0  0  0  0
   -2.6979    4.1935   -0.0998 H   0  0  0  0  0  0  0  0  0  0  0  0
    1.2442    2.0599    0.0271 H   0  0  0  0  0  0  0  0  0  0  0  0
    2.5669   -0.0393    0.0703 H   0  0  0  0  0  0  0  0  0  0  0  0
    1.4637   -2.2605    0.0295 H   0  0  0  0  0  0  0  0  0  0  0  0
   -1.0289   -2.4285   -0.0559 H   0  0  0  0  0  0  0  0  0  0  0  0
  1  4  2  0  0  0  0
  1  8  1  0  0  0  0
  2  1  1  0  0  0  0
  3  2  1  0  0  0  0
  4  5  1  0  0  0  0
  5 10  1  0  0  0  0
  5  6  2  0  0  0  0
  6 11  1  0  0  0  0
  7 12  1  0  0  0  0
  7  6  1  0  0  0  0
  8  7  2  0  0  0  0
 13  8  1  0  0  0  0
M  RAD  4   2   2   3   3   4   2   9   2
M  END
