Coordinates from ORCA-job PhN2+_B3LYPG-6-31G_dp-d09-49-n800
 OpenBabel11261919563D

 13 12  0  0  0  0  0  0  0  0999 V2000
   -1.2503   -0.2983   -0.0604 C   0  0  0  0  0  0  0  0  0  0  0  0
   -2.6259   -0.3672   -0.1069 N   0  0  0  0  0  0  0  0  0  0  0  0
   -3.7391   -0.4205   -0.1401 N   0  0  0  0  0  0  0  0  0  0  0  0
   -0.6397    0.9516   -0.0386 C   0  0  0  0  0  0  0  0  0  0  0  0
    0.7215    1.0779    0.0076 C   0  0  0  0  0  0  0  0  0  0  0  0
    1.4824   -0.1114    0.0325 C   0  0  0  0  0  0  0  0  0  0  0  0
    0.8756   -1.3794    0.0107 C   0  0  0  0  0  0  0  0  0  0  0  0
   -0.5017   -1.5054   -0.0362 C   0  0  0  0  0  0  0  0  0  0  0  0
   -2.7499    4.5641   -0.0990 H   0  0  0  0  0  0  0  0  0  0  0  0
    1.2184    2.0446    0.0252 H   0  0  0  0  0  0  0  0  0  0  0  0
    2.5666   -0.0362    0.0698 H   0  0  0  0  0  0  0  0  0  0  0  0
    1.4920   -2.2717    0.0309 H   0  0  0  0  0  0  0  0  0  0  0  0
   -0.9986   -2.4711   -0.0539 H   0  0  0  0  0  0  0  0  0  0  0  0
  1  4  2  0  0  0  0
  1  8  1  0  0  0  0
  2  1  1  0  0  0  0
  3  2  1  0  0  0  0
  4  5  1  0  0  0  0
  5 10  1  0  0  0  0
  5  6  2  0  0  0  0
  6 11  1  0  0  0  0
  7 12  1  0  0  0  0
  7  6  1  0  0  0  0
  8  7  2  0  0  0  0
 13  8  1  0  0  0  0
M  RAD  4   2   2   3   3   4   2   9   2
M  END
