Coordinates from ORCA-job PhN2+_B3LYPG-6-31G_dp-d09-49-n800
 OpenBabel11261919553D

 13 13  0  0  0  0  0  0  0  0999 V2000
   -1.3607   -0.0630   -0.0610 C   0  0  0  0  0  0  0  0  0  0  0  0
   -2.7345   -0.1412   -0.1060 N   0  0  0  0  0  0  0  0  0  0  0  0
   -3.8474   -0.2040   -0.1502 N   0  0  0  0  0  0  0  0  0  0  0  0
   -0.7756    1.2218   -0.0397 C   0  0  0  0  0  0  0  0  0  0  0  0
    0.6105    1.2693    0.0051 C   0  0  0  0  0  0  0  0  0  0  0  0
    1.3655    0.0876    0.0277 C   0  0  0  0  0  0  0  0  0  0  0  0
    0.7493   -1.1720    0.0059 C   0  0  0  0  0  0  0  0  0  0  0  0
   -0.6332   -1.2710   -0.0387 C   0  0  0  0  0  0  0  0  0  0  0  0
   -1.2842    1.9702   -0.0550 H   0  0  0  0  0  0  0  0  0  0  0  0
    1.1060    2.2342    0.0225 H   0  0  0  0  0  0  0  0  0  0  0  0
    2.4489    0.1490    0.0633 H   0  0  0  0  0  0  0  0  0  0  0  0
    1.3488   -2.0755    0.0240 H   0  0  0  0  0  0  0  0  0  0  0  0
   -1.1420   -2.2284   -0.0562 H   0  0  0  0  0  0  0  0  0  0  0  0
  1  4  2  0  0  0  0
  1  8  1  0  0  0  0
  2  1  1  0  0  0  0
  3  2  1  0  0  0  0
  4  5  1  0  0  0  0
  5 10  1  0  0  0  0
  5  6  2  0  0  0  0
  6 11  1  0  0  0  0
  7 12  1  0  0  0  0
  7  6  1  0  0  0  0
  8  7  2  0  0  0  0
  9  4  1  0  0  0  0
 13  8  1  0  0  0  0
M  RAD  2   2   2   3   3
M  END
