Coordinates from ORCA-job PhN2+_B3LYPG-6-31G_dp-d09-49-n800
 OpenBabel11261919563D

 13 12  0  0  0  0  0  0  0  0999 V2000
   -1.2619   -0.2251   -0.0596 C   0  0  0  0  0  0  0  0  0  0  0  0
   -2.6370   -0.2667   -0.1052 N   0  0  0  0  0  0  0  0  0  0  0  0
   -3.7506   -0.3011   -0.1421 N   0  0  0  0  0  0  0  0  0  0  0  0
   -0.6212    1.0099   -0.0367 C   0  0  0  0  0  0  0  0  0  0  0  0
    0.7399    1.1170    0.0088 C   0  0  0  0  0  0  0  0  0  0  0  0
    1.4773   -0.0875    0.0321 C   0  0  0  0  0  0  0  0  0  0  0  0
    0.8465   -1.3433    0.0094 C   0  0  0  0  0  0  0  0  0  0  0  0
   -0.5335   -1.4440   -0.0369 C   0  0  0  0  0  0  0  0  0  0  0  0
   -2.6200    3.9229   -0.0972 H   0  0  0  0  0  0  0  0  0  0  0  0
    1.2510    2.0756    0.0270 H   0  0  0  0  0  0  0  0  0  0  0  0
    2.5627   -0.0329    0.0689 H   0  0  0  0  0  0  0  0  0  0  0  0
    1.4458   -2.2472    0.0284 H   0  0  0  0  0  0  0  0  0  0  0  0
   -1.0475   -2.4006   -0.0552 H   0  0  0  0  0  0  0  0  0  0  0  0
  1  8  2  0  0  0  0
  1  4  1  0  0  0  0
  2  1  1  0  0  0  0
  3  2  1  0  0  0  0
  4  5  2  0  0  0  0
  5 10  1  0  0  0  0
  5  6  1  0  0  0  0
  6 11  1  0  0  0  0
  7 12  1  0  0  0  0
  7  6  2  0  0  0  0
  8  7  1  0  0  0  0
 13  8  1  0  0  0  0
M  RAD  4   2   2   3   3   4   2   9   2
M  END
