Coordinates from ORCA-job PhN2+_B3LYPG-6-31G_dp-d09-49-n800
 OpenBabel11261919563D

 13 12  0  0  0  0  0  0  0  0999 V2000
   -1.3331   -0.1187   -0.0615 C   0  0  0  0  0  0  0  0  0  0  0  0
   -2.7038   -0.1719   -0.1069 N   0  0  0  0  0  0  0  0  0  0  0  0
   -3.8173   -0.2163   -0.1436 N   0  0  0  0  0  0  0  0  0  0  0  0
   -0.7092    1.1359   -0.0390 C   0  0  0  0  0  0  0  0  0  0  0  0
    0.6621    1.2252    0.0068 C   0  0  0  0  0  0  0  0  0  0  0  0
    1.4032    0.0298    0.0298 C   0  0  0  0  0  0  0  0  0  0  0  0
    0.7796   -1.2284    0.0070 C   0  0  0  0  0  0  0  0  0  0  0  0
   -0.6018   -1.3297   -0.0391 C   0  0  0  0  0  0  0  0  0  0  0  0
   -1.7436    2.5977   -0.0712 H   0  0  0  0  0  0  0  0  0  0  0  0
    1.1598    2.1878    0.0248 H   0  0  0  0  0  0  0  0  0  0  0  0
    2.4875    0.0850    0.0664 H   0  0  0  0  0  0  0  0  0  0  0  0
    1.3793   -2.1317    0.0257 H   0  0  0  0  0  0  0  0  0  0  0  0
   -1.1111   -2.2875   -0.0574 H   0  0  0  0  0  0  0  0  0  0  0  0
  1  8  2  0  0  0  0
  1  4  1  0  0  0  0
  2  1  1  0  0  0  0
  3  2  1  0  0  0  0
  4  5  2  0  0  0  0
  5 10  1  0  0  0  0
  5  6  1  0  0  0  0
  6 11  1  0  0  0  0
  7 12  1  0  0  0  0
  7  6  2  0  0  0  0
  8  7  1  0  0  0  0
 13  8  1  0  0  0  0
M  RAD  4   2   2   3   3   4   2   9   2
M  END
