Coordinates from ORCA-job PhN2+_B3LYPG-6-31G_dp-d09-49-n800
 OpenBabel11261919563D

 13 12  0  0  0  0  0  0  0  0999 V2000
   -1.2505   -0.3598   -0.0601 C   0  0  0  0  0  0  0  0  0  0  0  0
   -2.6252   -0.4570   -0.1060 N   0  0  0  0  0  0  0  0  0  0  0  0
   -3.7371   -0.5309   -0.1429 N   0  0  0  0  0  0  0  0  0  0  0  0
   -0.6691    0.9038   -0.0396 C   0  0  0  0  0  0  0  0  0  0  0  0
    0.6901    1.0561    0.0063 C   0  0  0  0  0  0  0  0  0  0  0  0
    1.4761   -0.1165    0.0321 C   0  0  0  0  0  0  0  0  0  0  0  0
    0.8960   -1.3973    0.0115 C   0  0  0  0  0  0  0  0  0  0  0  0
   -0.4782   -1.5518   -0.0350 C   0  0  0  0  0  0  0  0  0  0  0  0
   -2.7531    5.0207   -0.0971 H   0  0  0  0  0  0  0  0  0  0  0  0
    1.1681    2.0325    0.0229 H   0  0  0  0  0  0  0  0  0  0  0  0
    2.5585   -0.0186    0.0691 H   0  0  0  0  0  0  0  0  0  0  0  0
    1.5311   -2.2763    0.0324 H   0  0  0  0  0  0  0  0  0  0  0  0
   -0.9551   -2.5276   -0.0517 H   0  0  0  0  0  0  0  0  0  0  0  0
  1  4  2  0  0  0  0
  1  8  1  0  0  0  0
  2  1  1  0  0  0  0
  3  2  1  0  0  0  0
  4  5  1  0  0  0  0
  5 10  1  0  0  0  0
  5  6  2  0  0  0  0
  6 11  1  0  0  0  0
  7  6  1  0  0  0  0
  7 12  1  0  0  0  0
  8  7  2  0  0  0  0
 13  8  1  0  0  0  0
M  RAD  4   2   2   3   3   4   2   9   2
M  END
