Coordinates from ORCA-job PhN2+_B3LYPG-6-31G_dp-d09-49-n800
 OpenBabel11261919563D

 13 12  0  0  0  0  0  0  0  0999 V2000
   -1.2499   -0.3383   -0.0600 C   0  0  0  0  0  0  0  0  0  0  0  0
   -2.6250   -0.4253   -0.1059 N   0  0  0  0  0  0  0  0  0  0  0  0
   -3.7374   -0.4917   -0.1429 N   0  0  0  0  0  0  0  0  0  0  0  0
   -0.6581    0.9205   -0.0393 C   0  0  0  0  0  0  0  0  0  0  0  0
    0.7019    1.0631    0.0066 C   0  0  0  0  0  0  0  0  0  0  0  0
    1.4789   -0.1155    0.0321 C   0  0  0  0  0  0  0  0  0  0  0  0
    0.8891   -1.3918    0.0113 C   0  0  0  0  0  0  0  0  0  0  0  0
   -0.4863   -1.5359   -0.0352 C   0  0  0  0  0  0  0  0  0  0  0  0
   -2.7575    4.8658   -0.0976 H   0  0  0  0  0  0  0  0  0  0  0  0
    1.1869    2.0360    0.0235 H   0  0  0  0  0  0  0  0  0  0  0  0
    2.5620   -0.0258    0.0691 H   0  0  0  0  0  0  0  0  0  0  0  0
    1.5175   -2.2757    0.0320 H   0  0  0  0  0  0  0  0  0  0  0  0
   -0.9705   -2.5081   -0.0521 H   0  0  0  0  0  0  0  0  0  0  0  0
  1  4  2  0  0  0  0
  1  8  1  0  0  0  0
  2  1  1  0  0  0  0
  3  2  1  0  0  0  0
  4  5  1  0  0  0  0
  5 10  1  0  0  0  0
  5  6  2  0  0  0  0
  6 11  1  0  0  0  0
  7 12  1  0  0  0  0
  7  6  1  0  0  0  0
  8  7  2  0  0  0  0
 13  8  1  0  0  0  0
M  RAD  4   2   2   3   3   4   2   9   2
M  END
