Coordinates from ORCA-job PhN2+_B3LYPG-6-31G_dp-d09-49-n800
 OpenBabel11261919553D

 13 13  0  0  0  0  0  0  0  0999 V2000
   -1.3514   -0.0820   -0.0619 C   0  0  0  0  0  0  0  0  0  0  0  0
   -2.7237   -0.1547   -0.1072 N   0  0  0  0  0  0  0  0  0  0  0  0
   -3.8370   -0.2136   -0.1451 N   0  0  0  0  0  0  0  0  0  0  0  0
   -0.7550    1.1952   -0.0402 C   0  0  0  0  0  0  0  0  0  0  0  0
    0.6278    1.2535    0.0057 C   0  0  0  0  0  0  0  0  0  0  0  0
    1.3777    0.0676    0.0288 C   0  0  0  0  0  0  0  0  0  0  0  0
    0.7594   -1.1919    0.0064 C   0  0  0  0  0  0  0  0  0  0  0  0
   -0.6225   -1.2910   -0.0395 C   0  0  0  0  0  0  0  0  0  0  0  0
   -1.4380    2.1943   -0.0614 H   0  0  0  0  0  0  0  0  0  0  0  0
    1.1253    2.2168    0.0236 H   0  0  0  0  0  0  0  0  0  0  0  0
    2.4613    0.1266    0.0653 H   0  0  0  0  0  0  0  0  0  0  0  0
    1.3590   -2.0953    0.0250 H   0  0  0  0  0  0  0  0  0  0  0  0
   -1.1315   -2.2485   -0.0577 H   0  0  0  0  0  0  0  0  0  0  0  0
  1  4  2  0  0  0  0
  1  8  1  0  0  0  0
  2  1  1  0  0  0  0
  3  2  1  0  0  0  0
  4  5  1  0  0  0  0
  5 10  1  0  0  0  0
  5  6  2  0  0  0  0
  6 11  1  0  0  0  0
  7 12  1  0  0  0  0
  7  6  1  0  0  0  0
  8  7  2  0  0  0  0
  9  4  1  0  0  0  0
 13  8  1  0  0  0  0
M  RAD  2   2   2   3   3
M  END
