Coordinates from ORCA-job PhN2+_B3LYPG-6-31G_dp-d09-49-n800
 OpenBabel11261919563D

 13 12  0  0  0  0  0  0  0  0999 V2000
   -1.3311   -0.1220   -0.0615 C   0  0  0  0  0  0  0  0  0  0  0  0
   -2.7018   -0.1734   -0.1068 N   0  0  0  0  0  0  0  0  0  0  0  0
   -3.8153   -0.2165   -0.1435 N   0  0  0  0  0  0  0  0  0  0  0  0
   -0.7049    1.1306   -0.0389 C   0  0  0  0  0  0  0  0  0  0  0  0
    0.6654    1.2224    0.0069 C   0  0  0  0  0  0  0  0  0  0  0  0
    1.4058    0.0261    0.0298 C   0  0  0  0  0  0  0  0  0  0  0  0
    0.7816   -1.2320    0.0071 C   0  0  0  0  0  0  0  0  0  0  0  0
   -0.5998   -1.3332   -0.0390 C   0  0  0  0  0  0  0  0  0  0  0  0
   -1.7737    2.6355   -0.0720 H   0  0  0  0  0  0  0  0  0  0  0  0
    1.1633    2.1849    0.0249 H   0  0  0  0  0  0  0  0  0  0  0  0
    2.4902    0.0809    0.0665 H   0  0  0  0  0  0  0  0  0  0  0  0
    1.3812   -2.1353    0.0258 H   0  0  0  0  0  0  0  0  0  0  0  0
   -1.1093   -2.2910   -0.0574 H   0  0  0  0  0  0  0  0  0  0  0  0
  1  8  2  0  0  0  0
  1  4  1  0  0  0  0
  2  1  1  0  0  0  0
  3  2  1  0  0  0  0
  4  5  2  0  0  0  0
  5 10  1  0  0  0  0
  5  6  1  0  0  0  0
  6 11  1  0  0  0  0
  7 12  1  0  0  0  0
  7  6  2  0  0  0  0
  8  7  1  0  0  0  0
 13  8  1  0  0  0  0
M  RAD  4   2   2   3   3   4   2   9   2
M  END
