Coordinates from ORCA-job PhN2+_B3LYPG-6-31G_dp-d09-49-n800
 OpenBabel11261919563D

 13 12  0  0  0  0  0  0  0  0999 V2000
   -1.2819   -0.1844   -0.0599 C   0  0  0  0  0  0  0  0  0  0  0  0
   -2.6553   -0.2176   -0.1052 N   0  0  0  0  0  0  0  0  0  0  0  0
   -3.7689   -0.2461   -0.1426 N   0  0  0  0  0  0  0  0  0  0  0  0
   -0.6317    1.0465   -0.0365 C   0  0  0  0  0  0  0  0  0  0  0  0
    0.7289    1.1528    0.0089 C   0  0  0  0  0  0  0  0  0  0  0  0
    1.4603   -0.0550    0.0315 C   0  0  0  0  0  0  0  0  0  0  0  0
    0.8246   -1.3081    0.0085 C   0  0  0  0  0  0  0  0  0  0  0  0
   -0.5564   -1.4040   -0.0376 C   0  0  0  0  0  0  0  0  0  0  0  0
   -2.3998    3.4603   -0.0916 H   0  0  0  0  0  0  0  0  0  0  0  0
    1.2389    2.1111    0.0272 H   0  0  0  0  0  0  0  0  0  0  0  0
    2.5457   -0.0052    0.0682 H   0  0  0  0  0  0  0  0  0  0  0  0
    1.4201   -2.2143    0.0270 H   0  0  0  0  0  0  0  0  0  0  0  0
   -1.0730   -2.3590   -0.0561 H   0  0  0  0  0  0  0  0  0  0  0  0
  1  8  2  0  0  0  0
  1  4  1  0  0  0  0
  2  1  1  0  0  0  0
  3  2  1  0  0  0  0
  4  5  2  0  0  0  0
  5 10  1  0  0  0  0
  5  6  1  0  0  0  0
  6 11  1  0  0  0  0
  7 12  1  0  0  0  0
  7  6  2  0  0  0  0
  8  7  1  0  0  0  0
 13  8  1  0  0  0  0
M  RAD  4   2   2   3   3   4   2   9   2
M  END
