Coordinates from ORCA-job PhN2+_B3LYPG-6-31G_dp-d09-49-n800
 OpenBabel11261919563D

 13 12  0  0  0  0  0  0  0  0999 V2000
   -1.2563   -0.2454   -0.0595 C   0  0  0  0  0  0  0  0  0  0  0  0
   -2.6318   -0.2935   -0.1052 N   0  0  0  0  0  0  0  0  0  0  0  0
   -3.7453   -0.3324   -0.1422 N   0  0  0  0  0  0  0  0  0  0  0  0
   -0.6231    0.9932   -0.0370 C   0  0  0  0  0  0  0  0  0  0  0  0
    0.7383    1.1035    0.0086 C   0  0  0  0  0  0  0  0  0  0  0  0
    1.4811   -0.0975    0.0322 C   0  0  0  0  0  0  0  0  0  0  0  0
    0.8556   -1.3561    0.0098 C   0  0  0  0  0  0  0  0  0  0  0  0
   -0.5238   -1.4621   -0.0365 C   0  0  0  0  0  0  0  0  0  0  0  0
   -2.6807    4.1200   -0.0984 H   0  0  0  0  0  0  0  0  0  0  0  0
    1.2470    2.0637    0.0266 H   0  0  0  0  0  0  0  0  0  0  0  0
    2.5662   -0.0382    0.0690 H   0  0  0  0  0  0  0  0  0  0  0  0
    1.4586   -2.2574    0.0290 H   0  0  0  0  0  0  0  0  0  0  0  0
   -1.0344   -2.4206   -0.0546 H   0  0  0  0  0  0  0  0  0  0  0  0
  1  4  2  0  0  0  0
  1  8  1  0  0  0  0
  2  1  1  0  0  0  0
  3  2  1  0  0  0  0
  4  5  1  0  0  0  0
  5 10  1  0  0  0  0
  5  6  2  0  0  0  0
  6 11  1  0  0  0  0
  7 12  1  0  0  0  0
  7  6  1  0  0  0  0
  8  7  2  0  0  0  0
 13  8  1  0  0  0  0
M  RAD  4   2   2   3   3   4   2   9   2
M  END
