Coordinates from ORCA-job PhN2+_B3LYPG-6-31G_dp-d09-49-n800
 OpenBabel11261919553D

 13 13  0  0  0  0  0  0  0  0999 V2000
   -1.3606   -0.0633   -0.0610 C   0  0  0  0  0  0  0  0  0  0  0  0
   -2.7343   -0.1414   -0.1060 N   0  0  0  0  0  0  0  0  0  0  0  0
   -3.8472   -0.2042   -0.1500 N   0  0  0  0  0  0  0  0  0  0  0  0
   -0.7753    1.2214   -0.0397 C   0  0  0  0  0  0  0  0  0  0  0  0
    0.6107    1.2690    0.0051 C   0  0  0  0  0  0  0  0  0  0  0  0
    1.3657    0.0873    0.0278 C   0  0  0  0  0  0  0  0  0  0  0  0
    0.7495   -1.1724    0.0059 C   0  0  0  0  0  0  0  0  0  0  0  0
   -0.6331   -1.2713   -0.0387 C   0  0  0  0  0  0  0  0  0  0  0  0
   -1.2867    1.9740   -0.0552 H   0  0  0  0  0  0  0  0  0  0  0  0
    1.1064    2.2339    0.0225 H   0  0  0  0  0  0  0  0  0  0  0  0
    2.4491    0.1486    0.0633 H   0  0  0  0  0  0  0  0  0  0  0  0
    1.3490   -2.0759    0.0240 H   0  0  0  0  0  0  0  0  0  0  0  0
   -1.1418   -2.2288   -0.0563 H   0  0  0  0  0  0  0  0  0  0  0  0
  1  4  2  0  0  0  0
  1  8  1  0  0  0  0
  2  1  1  0  0  0  0
  3  2  1  0  0  0  0
  4  5  1  0  0  0  0
  5 10  1  0  0  0  0
  5  6  2  0  0  0  0
  6 11  1  0  0  0  0
  7 12  1  0  0  0  0
  7  6  1  0  0  0  0
  8  7  2  0  0  0  0
  9  4  1  0  0  0  0
 13  8  1  0  0  0  0
M  RAD  2   2   2   3   3
M  END
