Coordinates from ORCA-job PhN2+_B3LYPG-6-31G_dp-d09-49-n800
 OpenBabel11261919563D

 13 12  0  0  0  0  0  0  0  0999 V2000
   -1.2499   -0.3361   -0.0604 C   0  0  0  0  0  0  0  0  0  0  0  0
   -2.6252   -0.4220   -0.1057 N   0  0  0  0  0  0  0  0  0  0  0  0
   -3.7376   -0.4874   -0.1421 N   0  0  0  0  0  0  0  0  0  0  0  0
   -0.6568    0.9217   -0.0395 C   0  0  0  0  0  0  0  0  0  0  0  0
    0.7031    1.0639    0.0067 C   0  0  0  0  0  0  0  0  0  0  0  0
    1.4792   -0.1153    0.0323 C   0  0  0  0  0  0  0  0  0  0  0  0
    0.8884   -1.3911    0.0111 C   0  0  0  0  0  0  0  0  0  0  0  0
   -0.4871   -1.5343   -0.0356 C   0  0  0  0  0  0  0  0  0  0  0  0
   -2.7575    4.8493   -0.0980 H   0  0  0  0  0  0  0  0  0  0  0  0
    1.1885    2.0366    0.0239 H   0  0  0  0  0  0  0  0  0  0  0  0
    2.5624   -0.0265    0.0696 H   0  0  0  0  0  0  0  0  0  0  0  0
    1.5161   -2.2755    0.0318 H   0  0  0  0  0  0  0  0  0  0  0  0
   -0.9721   -2.5062   -0.0526 H   0  0  0  0  0  0  0  0  0  0  0  0
  1  4  2  0  0  0  0
  1  8  1  0  0  0  0
  2  1  1  0  0  0  0
  3  2  1  0  0  0  0
  4  5  1  0  0  0  0
  5 10  1  0  0  0  0
  5  6  2  0  0  0  0
  6 11  1  0  0  0  0
  7 12  1  0  0  0  0
  7  6  1  0  0  0  0
  8  7  2  0  0  0  0
 13  8  1  0  0  0  0
M  RAD  4   2   2   3   3   4   2   9   2
M  END
