Coordinates from ORCA-job PhN2+_B3LYPG-6-31G_dp-d09-49-n800
 OpenBabel11261919563D

 13 12  0  0  0  0  0  0  0  0999 V2000
   -1.2812   -0.1859   -0.0599 C   0  0  0  0  0  0  0  0  0  0  0  0
   -2.6546   -0.2194   -0.1054 N   0  0  0  0  0  0  0  0  0  0  0  0
   -3.7682   -0.2482   -0.1422 N   0  0  0  0  0  0  0  0  0  0  0  0
   -0.6314    1.0452   -0.0366 C   0  0  0  0  0  0  0  0  0  0  0  0
    0.7292    1.1515    0.0089 C   0  0  0  0  0  0  0  0  0  0  0  0
    1.4609   -0.0562    0.0316 C   0  0  0  0  0  0  0  0  0  0  0  0
    0.8254   -1.3094    0.0085 C   0  0  0  0  0  0  0  0  0  0  0  0
   -0.5555   -1.4055   -0.0376 C   0  0  0  0  0  0  0  0  0  0  0  0
   -2.4079    3.4777   -0.0919 H   0  0  0  0  0  0  0  0  0  0  0  0
    1.2395    2.1097    0.0272 H   0  0  0  0  0  0  0  0  0  0  0  0
    2.5462   -0.0062    0.0683 H   0  0  0  0  0  0  0  0  0  0  0  0
    1.4211   -2.2155    0.0271 H   0  0  0  0  0  0  0  0  0  0  0  0
   -1.0720   -2.3605   -0.0562 H   0  0  0  0  0  0  0  0  0  0  0  0
  1  8  2  0  0  0  0
  1  4  1  0  0  0  0
  2  1  1  0  0  0  0
  3  2  1  0  0  0  0
  4  5  2  0  0  0  0
  5 10  1  0  0  0  0
  5  6  1  0  0  0  0
  6 11  1  0  0  0  0
  7 12  1  0  0  0  0
  7  6  2  0  0  0  0
  8  7  1  0  0  0  0
 13  8  1  0  0  0  0
M  RAD  4   2   2   3   3   4   2   9   2
M  END
