Coordinates from ORCA-job PhN2+_B3LYPG-6-31G_dp-d09-49-n800
 OpenBabel11261919563D

 13 12  0  0  0  0  0  0  0  0999 V2000
   -1.2515   -0.3789   -0.0601 C   0  0  0  0  0  0  0  0  0  0  0  0
   -2.6256   -0.4859   -0.1060 N   0  0  0  0  0  0  0  0  0  0  0  0
   -3.7370   -0.5673   -0.1428 N   0  0  0  0  0  0  0  0  0  0  0  0
   -0.6797    0.8890   -0.0399 C   0  0  0  0  0  0  0  0  0  0  0  0
    0.6786    1.0503    0.0060 C   0  0  0  0  0  0  0  0  0  0  0  0
    1.4729   -0.1165    0.0320 C   0  0  0  0  0  0  0  0  0  0  0  0
    0.9020   -1.4015    0.0116 C   0  0  0  0  0  0  0  0  0  0  0  0
   -0.4711   -1.5657   -0.0349 C   0  0  0  0  0  0  0  0  0  0  0  0
   -2.7439    5.1554   -0.0969 H   0  0  0  0  0  0  0  0  0  0  0  0
    1.1499    2.0299    0.0226 H   0  0  0  0  0  0  0  0  0  0  0  0
    2.5546   -0.0110    0.0690 H   0  0  0  0  0  0  0  0  0  0  0  0
    1.5433   -2.2760    0.0326 H   0  0  0  0  0  0  0  0  0  0  0  0
   -0.9411   -2.5448   -0.0515 H   0  0  0  0  0  0  0  0  0  0  0  0
  1  4  2  0  0  0  0
  1  8  1  0  0  0  0
  2  1  1  0  0  0  0
  3  2  1  0  0  0  0
  4  5  1  0  0  0  0
  5 10  1  0  0  0  0
  5  6  2  0  0  0  0
  6 11  1  0  0  0  0
  7  6  1  0  0  0  0
  7 12  1  0  0  0  0
  8  7  2  0  0  0  0
 13  8  1  0  0  0  0
M  RAD  4   2   2   3   3   4   2   9   2
M  END
