Coordinates from ORCA-job PhN2+_B3LYPG-6-31G_dp-d09-49-n800
 OpenBabel11261919553D

 13 13  0  0  0  0  0  0  0  0999 V2000
   -1.3567   -0.0709   -0.0616 C   0  0  0  0  0  0  0  0  0  0  0  0
   -2.7298   -0.1476   -0.1068 N   0  0  0  0  0  0  0  0  0  0  0  0
   -3.8429   -0.2091   -0.1470 N   0  0  0  0  0  0  0  0  0  0  0  0
   -0.7673    1.2115   -0.0402 C   0  0  0  0  0  0  0  0  0  0  0  0
    0.6178    1.2624    0.0053 C   0  0  0  0  0  0  0  0  0  0  0  0
    1.3706    0.0789    0.0284 C   0  0  0  0  0  0  0  0  0  0  0  0
    0.7536   -1.1806    0.0061 C   0  0  0  0  0  0  0  0  0  0  0  0
   -0.6286   -1.2794   -0.0393 C   0  0  0  0  0  0  0  0  0  0  0  0
   -1.3496    2.0672   -0.0581 H   0  0  0  0  0  0  0  0  0  0  0  0
    1.1148    2.2263    0.0231 H   0  0  0  0  0  0  0  0  0  0  0  0
    2.4541    0.1393    0.0645 H   0  0  0  0  0  0  0  0  0  0  0  0
    1.3531   -2.0841    0.0246 H   0  0  0  0  0  0  0  0  0  0  0  0
   -1.1375   -2.2368   -0.0572 H   0  0  0  0  0  0  0  0  0  0  0  0
  1  4  2  0  0  0  0
  1  8  1  0  0  0  0
  2  1  1  0  0  0  0
  3  2  1  0  0  0  0
  4  5  1  0  0  0  0
  5 10  1  0  0  0  0
  5  6  2  0  0  0  0
  6 11  1  0  0  0  0
  7 12  1  0  0  0  0
  7  6  1  0  0  0  0
  8  7  2  0  0  0  0
  9  4  1  0  0  0  0
 13  8  1  0  0  0  0
M  RAD  2   2   2   3   3
M  END
