Coordinates from ORCA-job PhN2+_B3LYPG-6-31G_dp-d09-49-n800
 OpenBabel11261919563D

 13 12  0  0  0  0  0  0  0  0999 V2000
   -1.2508   -0.3686   -0.0601 C   0  0  0  0  0  0  0  0  0  0  0  0
   -2.6253   -0.4698   -0.1060 N   0  0  0  0  0  0  0  0  0  0  0  0
   -3.7370   -0.5466   -0.1430 N   0  0  0  0  0  0  0  0  0  0  0  0
   -0.6734    0.8965   -0.0397 C   0  0  0  0  0  0  0  0  0  0  0  0
    0.6853    1.0533    0.0062 C   0  0  0  0  0  0  0  0  0  0  0  0
    1.4749   -0.1168    0.0320 C   0  0  0  0  0  0  0  0  0  0  0  0
    0.8988   -1.3994    0.0115 C   0  0  0  0  0  0  0  0  0  0  0  0
   -0.4749   -1.5584   -0.0349 C   0  0  0  0  0  0  0  0  0  0  0  0
   -2.7513    5.0836   -0.0970 H   0  0  0  0  0  0  0  0  0  0  0  0
    1.1601    2.0312    0.0228 H   0  0  0  0  0  0  0  0  0  0  0  0
    2.5571   -0.0157    0.0690 H   0  0  0  0  0  0  0  0  0  0  0  0
    1.5366   -2.2765    0.0325 H   0  0  0  0  0  0  0  0  0  0  0  0
   -0.9488   -2.5357   -0.0516 H   0  0  0  0  0  0  0  0  0  0  0  0
  1  4  2  0  0  0  0
  1  8  1  0  0  0  0
  2  1  1  0  0  0  0
  3  2  1  0  0  0  0
  4  5  1  0  0  0  0
  5 10  1  0  0  0  0
  5  6  2  0  0  0  0
  6 11  1  0  0  0  0
  7  6  1  0  0  0  0
  7 12  1  0  0  0  0
  8  7  2  0  0  0  0
 13  8  1  0  0  0  0
M  RAD  4   2   2   3   3   4   2   9   2
M  END
