Coordinates from ORCA-job PhN2+_B3LYPG-6-31G_dp-d09-49-n800
 OpenBabel11261919563D

 13 12  0  0  0  0  0  0  0  0999 V2000
   -1.2979   -0.1651   -0.0604 C   0  0  0  0  0  0  0  0  0  0  0  0
   -2.6700   -0.1995   -0.1058 N   0  0  0  0  0  0  0  0  0  0  0  0
   -3.7836   -0.2289   -0.1425 N   0  0  0  0  0  0  0  0  0  0  0  0
   -0.6494    1.0682   -0.0371 C   0  0  0  0  0  0  0  0  0  0  0  0
    0.7119    1.1759    0.0083 C   0  0  0  0  0  0  0  0  0  0  0  0
    1.4444   -0.0303    0.0310 C   0  0  0  0  0  0  0  0  0  0  0  0
    0.8112   -1.2844    0.0080 C   0  0  0  0  0  0  0  0  0  0  0  0
   -0.5701   -1.3823   -0.0381 C   0  0  0  0  0  0  0  0  0  0  0  0
   -2.2157    3.1954   -0.0859 H   0  0  0  0  0  0  0  0  0  0  0  0
    1.2178    2.1356    0.0266 H   0  0  0  0  0  0  0  0  0  0  0  0
    2.5296    0.0206    0.0677 H   0  0  0  0  0  0  0  0  0  0  0  0
    1.4078   -2.1899    0.0266 H   0  0  0  0  0  0  0  0  0  0  0  0
   -1.0846   -2.3381   -0.0566 H   0  0  0  0  0  0  0  0  0  0  0  0
  1  8  2  0  0  0  0
  1  4  1  0  0  0  0
  2  1  1  0  0  0  0
  3  2  1  0  0  0  0
  4  5  2  0  0  0  0
  5 10  1  0  0  0  0
  5  6  1  0  0  0  0
  6 11  1  0  0  0  0
  7 12  1  0  0  0  0
  7  6  2  0  0  0  0
  8  7  1  0  0  0  0
 13  8  1  0  0  0  0
M  RAD  4   2   2   3   3   4   2   9   2
M  END
