Coordinates from ORCA-job PhN2+_B3LYPG-6-31G_dp-d09-49-n800
 OpenBabel11261919563D

 13 12  0  0  0  0  0  0  0  0999 V2000
   -1.2774   -0.1920   -0.0602 C   0  0  0  0  0  0  0  0  0  0  0  0
   -2.6511   -0.2261   -0.1062 N   0  0  0  0  0  0  0  0  0  0  0  0
   -3.7649   -0.2553   -0.1404 N   0  0  0  0  0  0  0  0  0  0  0  0
   -0.6279    1.0390   -0.0367 C   0  0  0  0  0  0  0  0  0  0  0  0
    0.7328    1.1453    0.0090 C   0  0  0  0  0  0  0  0  0  0  0  0
    1.4647   -0.0625    0.0319 C   0  0  0  0  0  0  0  0  0  0  0  0
    0.8291   -1.3157    0.0086 C   0  0  0  0  0  0  0  0  0  0  0  0
   -0.5517   -1.4119   -0.0378 C   0  0  0  0  0  0  0  0  0  0  0  0
   -2.4524    3.5541   -0.0937 H   0  0  0  0  0  0  0  0  0  0  0  0
    1.2437    2.1033    0.0275 H   0  0  0  0  0  0  0  0  0  0  0  0
    2.5501   -0.0124    0.0688 H   0  0  0  0  0  0  0  0  0  0  0  0
    1.4249   -2.2217    0.0273 H   0  0  0  0  0  0  0  0  0  0  0  0
   -1.0682   -2.3670   -0.0566 H   0  0  0  0  0  0  0  0  0  0  0  0
  1  8  2  0  0  0  0
  1  4  1  0  0  0  0
  2  1  1  0  0  0  0
  3  2  1  0  0  0  0
  4  5  2  0  0  0  0
  5 10  1  0  0  0  0
  5  6  1  0  0  0  0
  6 11  1  0  0  0  0
  7 12  1  0  0  0  0
  7  6  2  0  0  0  0
  8  7  1  0  0  0  0
 13  8  1  0  0  0  0
M  RAD  4   2   2   3   3   4   2   9   2
M  END
