Coordinates from ORCA-job PhN2+_B3LYPG-6-31G_dp-d09-49-n800
 OpenBabel11261919553D

 13 12  0  0  0  0  0  0  0  0999 V2000
   -1.3412   -0.1036   -0.0617 C   0  0  0  0  0  0  0  0  0  0  0  0
   -2.7124   -0.1653   -0.1071 N   0  0  0  0  0  0  0  0  0  0  0  0
   -3.8258   -0.2161   -0.1439 N   0  0  0  0  0  0  0  0  0  0  0  0
   -0.7289    1.1606   -0.0396 C   0  0  0  0  0  0  0  0  0  0  0  0
    0.6474    1.2374    0.0063 C   0  0  0  0  0  0  0  0  0  0  0  0
    1.3920    0.0461    0.0294 C   0  0  0  0  0  0  0  0  0  0  0  0
    0.7709   -1.2130    0.0067 C   0  0  0  0  0  0  0  0  0  0  0  0
   -0.6106   -1.3135   -0.0393 C   0  0  0  0  0  0  0  0  0  0  0  0
   -1.6118    2.4292   -0.0671 H   0  0  0  0  0  0  0  0  0  0  0  0
    1.1447    2.2002    0.0243 H   0  0  0  0  0  0  0  0  0  0  0  0
    2.4760    0.1026    0.0660 H   0  0  0  0  0  0  0  0  0  0  0  0
    1.3707   -2.1162    0.0254 H   0  0  0  0  0  0  0  0  0  0  0  0
   -1.1195   -2.2713   -0.0576 H   0  0  0  0  0  0  0  0  0  0  0  0
  1  4  2  0  0  0  0
  1  8  1  0  0  0  0
  2  1  1  0  0  0  0
  3  2  1  0  0  0  0
  4  5  1  0  0  0  0
  5 10  1  0  0  0  0
  5  6  2  0  0  0  0
  6 11  1  0  0  0  0
  7 12  1  0  0  0  0
  7  6  1  0  0  0  0
  8  7  2  0  0  0  0
 13  8  1  0  0  0  0
M  RAD  4   2   2   3   3   4   2   9   2
M  END
