Coordinates from ORCA-job PhN2+_B3LYPG-6-31G_dp-d09-49-n800
 OpenBabel11261919563D

 13 12  0  0  0  0  0  0  0  0999 V2000
   -1.2503   -0.3531   -0.0602 C   0  0  0  0  0  0  0  0  0  0  0  0
   -2.6251   -0.4472   -0.1062 N   0  0  0  0  0  0  0  0  0  0  0  0
   -3.7372   -0.5188   -0.1425 N   0  0  0  0  0  0  0  0  0  0  0  0
   -0.6657    0.9091   -0.0396 C   0  0  0  0  0  0  0  0  0  0  0  0
    0.6938    1.0582    0.0064 C   0  0  0  0  0  0  0  0  0  0  0  0
    1.4770   -0.1162    0.0321 C   0  0  0  0  0  0  0  0  0  0  0  0
    0.8939   -1.3956    0.0114 C   0  0  0  0  0  0  0  0  0  0  0  0
   -0.4807   -1.5469   -0.0352 C   0  0  0  0  0  0  0  0  0  0  0  0
   -2.7547    4.9729   -0.0973 H   0  0  0  0  0  0  0  0  0  0  0  0
    1.1740    2.0335    0.0232 H   0  0  0  0  0  0  0  0  0  0  0  0
    2.5596   -0.0209    0.0692 H   0  0  0  0  0  0  0  0  0  0  0  0
    1.5269   -2.2762    0.0323 H   0  0  0  0  0  0  0  0  0  0  0  0
   -0.9599   -2.5216   -0.0520 H   0  0  0  0  0  0  0  0  0  0  0  0
  1  4  2  0  0  0  0
  1  8  1  0  0  0  0
  2  1  1  0  0  0  0
  3  2  1  0  0  0  0
  4  5  1  0  0  0  0
  5 10  1  0  0  0  0
  5  6  2  0  0  0  0
  6 11  1  0  0  0  0
  7  6  1  0  0  0  0
  7 12  1  0  0  0  0
  8  7  2  0  0  0  0
 13  8  1  0  0  0  0
M  RAD  4   2   2   3   3   4   2   9   2
M  END
