Coordinates from ORCA-job PhN2+_B3LYPG-6-31G_dp-d09-49-n800
 OpenBabel11261919563D

 13 12  0  0  0  0  0  0  0  0999 V2000
   -1.3282   -0.1267   -0.0614 C   0  0  0  0  0  0  0  0  0  0  0  0
   -2.6989   -0.1755   -0.1067 N   0  0  0  0  0  0  0  0  0  0  0  0
   -3.8124   -0.2167   -0.1434 N   0  0  0  0  0  0  0  0  0  0  0  0
   -0.6986    1.1231   -0.0387 C   0  0  0  0  0  0  0  0  0  0  0  0
    0.6702    1.2181    0.0070 C   0  0  0  0  0  0  0  0  0  0  0  0
    1.4096    0.0206    0.0300 C   0  0  0  0  0  0  0  0  0  0  0  0
    0.7845   -1.2371    0.0072 C   0  0  0  0  0  0  0  0  0  0  0  0
   -0.5969   -1.3384   -0.0389 C   0  0  0  0  0  0  0  0  0  0  0  0
   -1.8177    2.6906   -0.0734 H   0  0  0  0  0  0  0  0  0  0  0  0
    1.1685    2.1806    0.0250 H   0  0  0  0  0  0  0  0  0  0  0  0
    2.4941    0.0751    0.0666 H   0  0  0  0  0  0  0  0  0  0  0  0
    1.3839   -2.1405    0.0259 H   0  0  0  0  0  0  0  0  0  0  0  0
   -1.1067   -2.2961   -0.0573 H   0  0  0  0  0  0  0  0  0  0  0  0
  1  8  2  0  0  0  0
  1  4  1  0  0  0  0
  2  1  1  0  0  0  0
  3  2  1  0  0  0  0
  4  5  2  0  0  0  0
  5 10  1  0  0  0  0
  5  6  1  0  0  0  0
  6 11  1  0  0  0  0
  7 12  1  0  0  0  0
  7  6  2  0  0  0  0
  8  7  1  0  0  0  0
 13  8  1  0  0  0  0
M  RAD  4   2   2   3   3   4   2   9   2
M  END
