Coordinates from ORCA-job PhN2+_B3LYPG-6-31G_dp-d09-49-n800
 OpenBabel11261919563D

 13 12  0  0  0  0  0  0  0  0999 V2000
   -1.2497   -0.3246   -0.0600 C   0  0  0  0  0  0  0  0  0  0  0  0
   -2.6251   -0.4053   -0.1059 N   0  0  0  0  0  0  0  0  0  0  0  0
   -3.7377   -0.4671   -0.1428 N   0  0  0  0  0  0  0  0  0  0  0  0
   -0.6515    0.9312   -0.0391 C   0  0  0  0  0  0  0  0  0  0  0  0
    0.7090    1.0678    0.0068 C   0  0  0  0  0  0  0  0  0  0  0  0
    1.4804   -0.1145    0.0322 C   0  0  0  0  0  0  0  0  0  0  0  0
    0.8846   -1.3880    0.0111 C   0  0  0  0  0  0  0  0  0  0  0  0
   -0.4915   -1.5256   -0.0354 C   0  0  0  0  0  0  0  0  0  0  0  0
   -2.7576    4.7647   -0.0978 H   0  0  0  0  0  0  0  0  0  0  0  0
    1.1983    2.0385    0.0239 H   0  0  0  0  0  0  0  0  0  0  0  0
    2.5639   -0.0299    0.0692 H   0  0  0  0  0  0  0  0  0  0  0  0
    1.5088   -2.2748    0.0317 H   0  0  0  0  0  0  0  0  0  0  0  0
   -0.9803   -2.4955   -0.0524 H   0  0  0  0  0  0  0  0  0  0  0  0
  1  4  2  0  0  0  0
  1  8  1  0  0  0  0
  2  1  1  0  0  0  0
  3  2  1  0  0  0  0
  4  5  1  0  0  0  0
  5 10  1  0  0  0  0
  5  6  2  0  0  0  0
  6 11  1  0  0  0  0
  7 12  1  0  0  0  0
  7  6  1  0  0  0  0
  8  7  2  0  0  0  0
 13  8  1  0  0  0  0
M  RAD  4   2   2   3   3   4   2   9   2
M  END
