Coordinates from ORCA-job PhN2+_B3LYPG-6-31G_dp-d09-49-n800
 OpenBabel11261919563D

 13 12  0  0  0  0  0  0  0  0999 V2000
   -1.2677   -0.2101   -0.0598 C   0  0  0  0  0  0  0  0  0  0  0  0
   -2.6422   -0.2475   -0.1055 N   0  0  0  0  0  0  0  0  0  0  0  0
   -3.7560   -0.2789   -0.1414 N   0  0  0  0  0  0  0  0  0  0  0  0
   -0.6221    1.0225   -0.0366 C   0  0  0  0  0  0  0  0  0  0  0  0
    0.7388    1.1286    0.0090 C   0  0  0  0  0  0  0  0  0  0  0  0
    1.4731   -0.0780    0.0320 C   0  0  0  0  0  0  0  0  0  0  0  0
    0.8392   -1.3322    0.0090 C   0  0  0  0  0  0  0  0  0  0  0  0
   -0.5412   -1.4300   -0.0373 C   0  0  0  0  0  0  0  0  0  0  0  0
   -2.5588    3.7651   -0.0962 H   0  0  0  0  0  0  0  0  0  0  0  0
    1.2506    2.0866    0.0274 H   0  0  0  0  0  0  0  0  0  0  0  0
    2.5585   -0.0261    0.0688 H   0  0  0  0  0  0  0  0  0  0  0  0
    1.4363   -2.2374    0.0278 H   0  0  0  0  0  0  0  0  0  0  0  0
   -1.0570   -2.3856   -0.0558 H   0  0  0  0  0  0  0  0  0  0  0  0
  1  8  2  0  0  0  0
  1  4  1  0  0  0  0
  2  1  1  0  0  0  0
  3  2  1  0  0  0  0
  4  5  2  0  0  0  0
  5 10  1  0  0  0  0
  5  6  1  0  0  0  0
  6 11  1  0  0  0  0
  7 12  1  0  0  0  0
  7  6  2  0  0  0  0
  8  7  1  0  0  0  0
 13  8  1  0  0  0  0
M  RAD  4   2   2   3   3   4   2   9   2
M  END
