Coordinates from ORCA-job PhN2+_B3LYPG-6-31G_dp-d09-49-n800
 OpenBabel11261919553D

 13 12  0  0  0  0  0  0  0  0999 V2000
   -1.3398   -0.1064   -0.0617 C   0  0  0  0  0  0  0  0  0  0  0  0
   -2.7108   -0.1665   -0.1070 N   0  0  0  0  0  0  0  0  0  0  0  0
   -3.8243   -0.2161   -0.1439 N   0  0  0  0  0  0  0  0  0  0  0  0
   -0.7252    1.1560   -0.0395 C   0  0  0  0  0  0  0  0  0  0  0  0
    0.6501    1.2352    0.0064 C   0  0  0  0  0  0  0  0  0  0  0  0
    1.3940    0.0431    0.0295 C   0  0  0  0  0  0  0  0  0  0  0  0
    0.7725   -1.2158    0.0068 C   0  0  0  0  0  0  0  0  0  0  0  0
   -0.6090   -1.3165   -0.0393 C   0  0  0  0  0  0  0  0  0  0  0  0
   -1.6358    2.4602   -0.0679 H   0  0  0  0  0  0  0  0  0  0  0  0
    1.1474    2.1980    0.0244 H   0  0  0  0  0  0  0  0  0  0  0  0
    2.4781    0.0994    0.0660 H   0  0  0  0  0  0  0  0  0  0  0  0
    1.3723   -2.1190    0.0255 H   0  0  0  0  0  0  0  0  0  0  0  0
   -1.1179   -2.2744   -0.0576 H   0  0  0  0  0  0  0  0  0  0  0  0
  1  4  2  0  0  0  0
  1  8  1  0  0  0  0
  2  1  1  0  0  0  0
  3  2  1  0  0  0  0
  4  5  1  0  0  0  0
  5 10  1  0  0  0  0
  5  6  2  0  0  0  0
  6 11  1  0  0  0  0
  7 12  1  0  0  0  0
  7  6  1  0  0  0  0
  8  7  2  0  0  0  0
 13  8  1  0  0  0  0
M  RAD  4   2   2   3   3   4   2   9   2
M  END
