Coordinates from ORCA-job PhN2+_B3LYPG-6-31G_dp-d09-49-n800
 OpenBabel11261919563D

 13 12  0  0  0  0  0  0  0  0999 V2000
   -1.3248   -0.1318   -0.0613 C   0  0  0  0  0  0  0  0  0  0  0  0
   -2.6955   -0.1781   -0.1066 N   0  0  0  0  0  0  0  0  0  0  0  0
   -3.8090   -0.2172   -0.1433 N   0  0  0  0  0  0  0  0  0  0  0  0
   -0.6917    1.1150   -0.0385 C   0  0  0  0  0  0  0  0  0  0  0  0
    0.6756    1.2133    0.0072 C   0  0  0  0  0  0  0  0  0  0  0  0
    1.4140    0.0144    0.0301 C   0  0  0  0  0  0  0  0  0  0  0  0
    0.7878   -1.2429    0.0073 C   0  0  0  0  0  0  0  0  0  0  0  0
   -0.5936   -1.3441   -0.0388 C   0  0  0  0  0  0  0  0  0  0  0  0
   -1.8674    2.7528   -0.0750 H   0  0  0  0  0  0  0  0  0  0  0  0
    1.1745    2.1755    0.0252 H   0  0  0  0  0  0  0  0  0  0  0  0
    2.4985    0.0684    0.0667 H   0  0  0  0  0  0  0  0  0  0  0  0
    1.3870   -2.1465    0.0260 H   0  0  0  0  0  0  0  0  0  0  0  0
   -1.1038   -2.3016   -0.0572 H   0  0  0  0  0  0  0  0  0  0  0  0
  1  8  2  0  0  0  0
  1  4  1  0  0  0  0
  2  1  1  0  0  0  0
  3  2  1  0  0  0  0
  4  5  2  0  0  0  0
  5 10  1  0  0  0  0
  5  6  1  0  0  0  0
  6 11  1  0  0  0  0
  7 12  1  0  0  0  0
  7  6  2  0  0  0  0
  8  7  1  0  0  0  0
 13  8  1  0  0  0  0
M  RAD  4   2   2   3   3   4   2   9   2
M  END
