Coordinates from ORCA-job PhN2+_B3LYPG-6-31G_dp-d09-49-n800
 OpenBabel11261919563D

 13 12  0  0  0  0  0  0  0  0999 V2000
   -1.2872   -0.1771   -0.0599 C   0  0  0  0  0  0  0  0  0  0  0  0
   -2.6601   -0.2103   -0.1051 N   0  0  0  0  0  0  0  0  0  0  0  0
   -3.7737   -0.2388   -0.1432 N   0  0  0  0  0  0  0  0  0  0  0  0
   -0.6367    1.0541   -0.0366 C   0  0  0  0  0  0  0  0  0  0  0  0
    0.7240    1.1609    0.0087 C   0  0  0  0  0  0  0  0  0  0  0  0
    1.4552   -0.0468    0.0313 C   0  0  0  0  0  0  0  0  0  0  0  0
    0.8199   -1.3001    0.0083 C   0  0  0  0  0  0  0  0  0  0  0  0
   -0.5612   -1.3962   -0.0377 C   0  0  0  0  0  0  0  0  0  0  0  0
   -2.3403    3.3663   -0.0896 H   0  0  0  0  0  0  0  0  0  0  0  0
    1.2330    2.1195    0.0270 H   0  0  0  0  0  0  0  0  0  0  0  0
    2.5406    0.0030    0.0679 H   0  0  0  0  0  0  0  0  0  0  0  0
    1.4154   -2.2062    0.0268 H   0  0  0  0  0  0  0  0  0  0  0  0
   -1.0775   -2.3512   -0.0562 H   0  0  0  0  0  0  0  0  0  0  0  0
  1  8  2  0  0  0  0
  1  4  1  0  0  0  0
  2  1  1  0  0  0  0
  3  2  1  0  0  0  0
  4  5  2  0  0  0  0
  5 10  1  0  0  0  0
  5  6  1  0  0  0  0
  6 11  1  0  0  0  0
  7 12  1  0  0  0  0
  7  6  2  0  0  0  0
  8  7  1  0  0  0  0
 13  8  1  0  0  0  0
M  RAD  4   2   2   3   3   4   2   9   2
M  END
