Coordinates from ORCA-job PhN2+_B3LYPG-6-31G_dp-d09-49-n800
 OpenBabel11261919563D

 13 12  0  0  0  0  0  0  0  0999 V2000
   -1.2514   -0.2801   -0.0597 C   0  0  0  0  0  0  0  0  0  0  0  0
   -2.6271   -0.3414   -0.1055 N   0  0  0  0  0  0  0  0  0  0  0  0
   -3.7404   -0.3894   -0.1425 N   0  0  0  0  0  0  0  0  0  0  0  0
   -0.6327    0.9657   -0.0379 C   0  0  0  0  0  0  0  0  0  0  0  0
    0.7287    1.0857    0.0079 C   0  0  0  0  0  0  0  0  0  0  0  0
    1.4829   -0.1080    0.0323 C   0  0  0  0  0  0  0  0  0  0  0  0
    0.8691   -1.3726    0.0104 C   0  0  0  0  0  0  0  0  0  0  0  0
   -0.5090   -1.4909   -0.0360 C   0  0  0  0  0  0  0  0  0  0  0  0
   -2.7359    4.4192   -0.0987 H   0  0  0  0  0  0  0  0  0  0  0  0
    1.2302    2.0498    0.0255 H   0  0  0  0  0  0  0  0  0  0  0  0
    2.5675   -0.0386    0.0692 H   0  0  0  0  0  0  0  0  0  0  0  0
    1.4806   -2.2683    0.0303 H   0  0  0  0  0  0  0  0  0  0  0  0
   -1.0112   -2.4539   -0.0536 H   0  0  0  0  0  0  0  0  0  0  0  0
  1  4  2  0  0  0  0
  1  8  1  0  0  0  0
  2  1  1  0  0  0  0
  3  2  1  0  0  0  0
  4  5  1  0  0  0  0
  5 10  1  0  0  0  0
  5  6  2  0  0  0  0
  6 11  1  0  0  0  0
  7 12  1  0  0  0  0
  7  6  1  0  0  0  0
  8  7  2  0  0  0  0
 13  8  1  0  0  0  0
M  RAD  4   2   2   3   3   4   2   9   2
M  END
