Coordinates from ORCA-job PhN2+_B3LYPG-6-31G_dp-d09-49-n800
 OpenBabel11261919563D

 13 12  0  0  0  0  0  0  0  0999 V2000
   -1.2922   -0.1714   -0.0605 C   0  0  0  0  0  0  0  0  0  0  0  0
   -2.6648   -0.2047   -0.1059 N   0  0  0  0  0  0  0  0  0  0  0  0
   -3.7784   -0.2333   -0.1427 N   0  0  0  0  0  0  0  0  0  0  0  0
   -0.6425    1.0606   -0.0373 C   0  0  0  0  0  0  0  0  0  0  0  0
    0.7183    1.1681    0.0083 C   0  0  0  0  0  0  0  0  0  0  0  0
    1.4501   -0.0389    0.0313 C   0  0  0  0  0  0  0  0  0  0  0  0
    0.8157   -1.2926    0.0083 C   0  0  0  0  0  0  0  0  0  0  0  0
   -0.5654   -1.3895   -0.0379 C   0  0  0  0  0  0  0  0  0  0  0  0
   -2.2814    3.2836   -0.0873 H   0  0  0  0  0  0  0  0  0  0  0  0
    1.2259    2.1272    0.0265 H   0  0  0  0  0  0  0  0  0  0  0  0
    2.5354    0.0114    0.0680 H   0  0  0  0  0  0  0  0  0  0  0  0
    1.4118   -2.1984    0.0271 H   0  0  0  0  0  0  0  0  0  0  0  0
   -1.0809   -2.3450   -0.0564 H   0  0  0  0  0  0  0  0  0  0  0  0
  1  8  2  0  0  0  0
  1  4  1  0  0  0  0
  2  1  1  0  0  0  0
  3  2  1  0  0  0  0
  4  5  2  0  0  0  0
  5 10  1  0  0  0  0
  5  6  1  0  0  0  0
  6 11  1  0  0  0  0
  7 12  1  0  0  0  0
  7  6  2  0  0  0  0
  8  7  1  0  0  0  0
 13  8  1  0  0  0  0
M  RAD  4   2   2   3   3   4   2   9   2
M  END
