Coordinates from ORCA-job PhN2+_B3LYPG-6-31G_dp-d09-49-n800
 OpenBabel11261919563D

 13 12  0  0  0  0  0  0  0  0999 V2000
   -1.2969   -0.1662   -0.0605 C   0  0  0  0  0  0  0  0  0  0  0  0
   -2.6691   -0.2002   -0.1059 N   0  0  0  0  0  0  0  0  0  0  0  0
   -3.7827   -0.2292   -0.1425 N   0  0  0  0  0  0  0  0  0  0  0  0
   -0.6481    1.0669   -0.0372 C   0  0  0  0  0  0  0  0  0  0  0  0
    0.7130    1.1746    0.0083 C   0  0  0  0  0  0  0  0  0  0  0  0
    1.4454   -0.0318    0.0311 C   0  0  0  0  0  0  0  0  0  0  0  0
    0.8119   -1.2858    0.0081 C   0  0  0  0  0  0  0  0  0  0  0  0
   -0.5693   -1.3835   -0.0381 C   0  0  0  0  0  0  0  0  0  0  0  0
   -2.2272    3.2097   -0.0861 H   0  0  0  0  0  0  0  0  0  0  0  0
    1.2193    2.1342    0.0265 H   0  0  0  0  0  0  0  0  0  0  0  0
    2.5306    0.0190    0.0677 H   0  0  0  0  0  0  0  0  0  0  0  0
    1.4085   -2.1913    0.0267 H   0  0  0  0  0  0  0  0  0  0  0  0
   -1.0840   -2.3392   -0.0566 H   0  0  0  0  0  0  0  0  0  0  0  0
  1  8  2  0  0  0  0
  1  4  1  0  0  0  0
  2  1  1  0  0  0  0
  3  2  1  0  0  0  0
  4  5  2  0  0  0  0
  5 10  1  0  0  0  0
  5  6  1  0  0  0  0
  6 11  1  0  0  0  0
  7 12  1  0  0  0  0
  7  6  2  0  0  0  0
  8  7  1  0  0  0  0
 13  8  1  0  0  0  0
M  RAD  4   2   2   3   3   4   2   9   2
M  END
