Coordinates from ORCA-job PhN2+_B3LYPG-6-31G_dp-d09-49-n800
 OpenBabel11261919563D

 13 12  0  0  0  0  0  0  0  0999 V2000
   -1.3238   -0.1332   -0.0613 C   0  0  0  0  0  0  0  0  0  0  0  0
   -2.6946   -0.1788   -0.1066 N   0  0  0  0  0  0  0  0  0  0  0  0
   -3.8081   -0.2174   -0.1433 N   0  0  0  0  0  0  0  0  0  0  0  0
   -0.6899    1.1128   -0.0384 C   0  0  0  0  0  0  0  0  0  0  0  0
    0.6771    1.2119    0.0072 C   0  0  0  0  0  0  0  0  0  0  0  0
    1.4152    0.0126    0.0301 C   0  0  0  0  0  0  0  0  0  0  0  0
    0.7887   -1.2445    0.0073 C   0  0  0  0  0  0  0  0  0  0  0  0
   -0.5926   -1.3456   -0.0388 C   0  0  0  0  0  0  0  0  0  0  0  0
   -1.8813    2.7701   -0.0754 H   0  0  0  0  0  0  0  0  0  0  0  0
    1.1761    2.1741    0.0252 H   0  0  0  0  0  0  0  0  0  0  0  0
    2.4997    0.0665    0.0668 H   0  0  0  0  0  0  0  0  0  0  0  0
    1.3879   -2.1482    0.0260 H   0  0  0  0  0  0  0  0  0  0  0  0
   -1.1030   -2.3032   -0.0572 H   0  0  0  0  0  0  0  0  0  0  0  0
  1  8  2  0  0  0  0
  1  4  1  0  0  0  0
  2  1  1  0  0  0  0
  3  2  1  0  0  0  0
  4  5  2  0  0  0  0
  5 10  1  0  0  0  0
  5  6  1  0  0  0  0
  6 11  1  0  0  0  0
  7 12  1  0  0  0  0
  7  6  2  0  0  0  0
  8  7  1  0  0  0  0
 13  8  1  0  0  0  0
M  RAD  4   2   2   3   3   4   2   9   2
M  END
