Coordinates from ORCA-job PhN2+_B3LYPG-6-31G_dp-d09-49-n800
 OpenBabel11261919553D

 13 13  0  0  0  0  0  0  0  0999 V2000
   -1.3595   -0.0654   -0.0613 C   0  0  0  0  0  0  0  0  0  0  0  0
   -2.7330   -0.1432   -0.1063 N   0  0  0  0  0  0  0  0  0  0  0  0
   -3.8460   -0.2056   -0.1489 N   0  0  0  0  0  0  0  0  0  0  0  0
   -0.7732    1.2188   -0.0399 C   0  0  0  0  0  0  0  0  0  0  0  0
    0.6127    1.2671    0.0051 C   0  0  0  0  0  0  0  0  0  0  0  0
    1.3670    0.0849    0.0280 C   0  0  0  0  0  0  0  0  0  0  0  0
    0.7506   -1.1747    0.0060 C   0  0  0  0  0  0  0  0  0  0  0  0
   -0.6318   -1.2735   -0.0389 C   0  0  0  0  0  0  0  0  0  0  0  0
   -1.3044    2.0003   -0.0561 H   0  0  0  0  0  0  0  0  0  0  0  0
    1.1089    2.2317    0.0227 H   0  0  0  0  0  0  0  0  0  0  0  0
    2.4505    0.1460    0.0637 H   0  0  0  0  0  0  0  0  0  0  0  0
    1.3502   -2.0782    0.0242 H   0  0  0  0  0  0  0  0  0  0  0  0
   -1.1405   -2.2311   -0.0566 H   0  0  0  0  0  0  0  0  0  0  0  0
  1  4  2  0  0  0  0
  1  8  1  0  0  0  0
  2  1  1  0  0  0  0
  3  2  1  0  0  0  0
  4  5  1  0  0  0  0
  5 10  1  0  0  0  0
  5  6  2  0  0  0  0
  6 11  1  0  0  0  0
  7 12  1  0  0  0  0
  7  6  1  0  0  0  0
  8  7  2  0  0  0  0
  9  4  1  0  0  0  0
 13  8  1  0  0  0  0
M  RAD  2   2   2   3   3
M  END
