Coordinates from ORCA-job PhN2+_B3LYPG-6-31G_dp-d09-49-n800
 OpenBabel11261919563D

 13 12  0  0  0  0  0  0  0  0999 V2000
   -1.3034   -0.1590   -0.0606 C   0  0  0  0  0  0  0  0  0  0  0  0
   -2.6752   -0.1948   -0.1059 N   0  0  0  0  0  0  0  0  0  0  0  0
   -3.7887   -0.2256   -0.1426 N   0  0  0  0  0  0  0  0  0  0  0  0
   -0.6568    1.0760   -0.0374 C   0  0  0  0  0  0  0  0  0  0  0  0
    0.7051    1.1834    0.0081 C   0  0  0  0  0  0  0  0  0  0  0  0
    1.4386   -0.0216    0.0309 C   0  0  0  0  0  0  0  0  0  0  0  0
    0.8066   -1.2763    0.0078 C   0  0  0  0  0  0  0  0  0  0  0  0
   -0.5746   -1.3751   -0.0383 C   0  0  0  0  0  0  0  0  0  0  0  0
   -2.1486    3.1090   -0.0839 H   0  0  0  0  0  0  0  0  0  0  0  0
    1.2093    2.1438    0.0263 H   0  0  0  0  0  0  0  0  0  0  0  0
    2.5236    0.0300    0.0675 H   0  0  0  0  0  0  0  0  0  0  0  0
    1.4039   -2.1813    0.0264 H   0  0  0  0  0  0  0  0  0  0  0  0
   -1.0882   -2.3313   -0.0567 H   0  0  0  0  0  0  0  0  0  0  0  0
  1  8  2  0  0  0  0
  1  4  1  0  0  0  0
  2  1  1  0  0  0  0
  3  2  1  0  0  0  0
  4  5  2  0  0  0  0
  5 10  1  0  0  0  0
  5  6  1  0  0  0  0
  6 11  1  0  0  0  0
  7 12  1  0  0  0  0
  7  6  2  0  0  0  0
  8  7  1  0  0  0  0
 13  8  1  0  0  0  0
M  RAD  4   2   2   3   3   4   2   9   2
M  END
