Coordinates from ORCA-job PhN2+_B3LYPG-6-31G_dp-d09-49-n800
 OpenBabel11261919563D

 13 12  0  0  0  0  0  0  0  0999 V2000
   -1.2498   -0.3190   -0.0600 C   0  0  0  0  0  0  0  0  0  0  0  0
   -2.6252   -0.3972   -0.1059 N   0  0  0  0  0  0  0  0  0  0  0  0
   -3.7380   -0.4573   -0.1428 N   0  0  0  0  0  0  0  0  0  0  0  0
   -0.6490    0.9355   -0.0389 C   0  0  0  0  0  0  0  0  0  0  0  0
    0.7117    1.0699    0.0070 C   0  0  0  0  0  0  0  0  0  0  0  0
    1.4808   -0.1139    0.0322 C   0  0  0  0  0  0  0  0  0  0  0  0
    0.8828   -1.3862    0.0111 C   0  0  0  0  0  0  0  0  0  0  0  0
   -0.4936   -1.5213   -0.0354 C   0  0  0  0  0  0  0  0  0  0  0  0
   -2.7563    4.7226   -0.0979 H   0  0  0  0  0  0  0  0  0  0  0  0
    1.2026    2.0397    0.0241 H   0  0  0  0  0  0  0  0  0  0  0  0
    2.5645   -0.0312    0.0692 H   0  0  0  0  0  0  0  0  0  0  0  0
    1.5052   -2.2742    0.0316 H   0  0  0  0  0  0  0  0  0  0  0  0
   -0.9842   -2.4903   -0.0526 H   0  0  0  0  0  0  0  0  0  0  0  0
  1  4  2  0  0  0  0
  1  8  1  0  0  0  0
  2  1  1  0  0  0  0
  3  2  1  0  0  0  0
  4  5  1  0  0  0  0
  5 10  1  0  0  0  0
  5  6  2  0  0  0  0
  6 11  1  0  0  0  0
  7 12  1  0  0  0  0
  7  6  1  0  0  0  0
  8  7  2  0  0  0  0
 13  8  1  0  0  0  0
M  RAD  4   2   2   3   3   4   2   9   2
M  END
