Coordinates from ORCA-job PhN2+_B3LYPG-6-31G_dp-d09-49-n800
 OpenBabel11261919563D

 13 12  0  0  0  0  0  0  0  0999 V2000
   -1.2586   -0.2358   -0.0596 C   0  0  0  0  0  0  0  0  0  0  0  0
   -2.6340   -0.2807   -0.1052 N   0  0  0  0  0  0  0  0  0  0  0  0
   -3.7476   -0.3175   -0.1421 N   0  0  0  0  0  0  0  0  0  0  0  0
   -0.6217    1.0009   -0.0369 C   0  0  0  0  0  0  0  0  0  0  0  0
    0.7395    1.1096    0.0087 C   0  0  0  0  0  0  0  0  0  0  0  0
    1.4796   -0.0932    0.0322 C   0  0  0  0  0  0  0  0  0  0  0  0
    0.8514   -1.3504    0.0096 C   0  0  0  0  0  0  0  0  0  0  0  0
   -0.5282   -1.4537   -0.0367 C   0  0  0  0  0  0  0  0  0  0  0  0
   -2.6552    4.0295   -0.0979 H   0  0  0  0  0  0  0  0  0  0  0  0
    1.2494    2.0690    0.0268 H   0  0  0  0  0  0  0  0  0  0  0  0
    2.5649   -0.0362    0.0690 H   0  0  0  0  0  0  0  0  0  0  0  0
    1.4526   -2.2530    0.0287 H   0  0  0  0  0  0  0  0  0  0  0  0
   -1.0406   -2.4112   -0.0549 H   0  0  0  0  0  0  0  0  0  0  0  0
  1  4  2  0  0  0  0
  1  8  1  0  0  0  0
  2  1  1  0  0  0  0
  3  2  1  0  0  0  0
  4  5  1  0  0  0  0
  5 10  1  0  0  0  0
  5  6  2  0  0  0  0
  6 11  1  0  0  0  0
  7 12  1  0  0  0  0
  7  6  1  0  0  0  0
  8  7  2  0  0  0  0
 13  8  1  0  0  0  0
M  RAD  4   2   2   3   3   4   2   9   2
M  END
