Coordinates from ORCA-job PhN2+_B3LYPG-6-31G_dp-d09-49-n800
 OpenBabel11261919563D

 13 12  0  0  0  0  0  0  0  0999 V2000
   -1.2761   -0.1940   -0.0596 C   0  0  0  0  0  0  0  0  0  0  0  0
   -2.6500   -0.2282   -0.1049 N   0  0  0  0  0  0  0  0  0  0  0  0
   -3.7636   -0.2575   -0.1427 N   0  0  0  0  0  0  0  0  0  0  0  0
   -0.6268    1.0370   -0.0364 C   0  0  0  0  0  0  0  0  0  0  0  0
    0.7338    1.1433    0.0089 C   0  0  0  0  0  0  0  0  0  0  0  0
    1.4658   -0.0645    0.0317 C   0  0  0  0  0  0  0  0  0  0  0  0
    0.8303   -1.3177    0.0087 C   0  0  0  0  0  0  0  0  0  0  0  0
   -0.5505   -1.4139   -0.0374 C   0  0  0  0  0  0  0  0  0  0  0  0
   -2.4666    3.5783   -0.0934 H   0  0  0  0  0  0  0  0  0  0  0  0
    1.2449    2.1013    0.0273 H   0  0  0  0  0  0  0  0  0  0  0  0
    2.5512   -0.0143    0.0683 H   0  0  0  0  0  0  0  0  0  0  0  0
    1.4261   -2.2237    0.0273 H   0  0  0  0  0  0  0  0  0  0  0  0
   -1.0670   -2.3690   -0.0558 H   0  0  0  0  0  0  0  0  0  0  0  0
  1  8  2  0  0  0  0
  1  4  1  0  0  0  0
  2  1  1  0  0  0  0
  3  2  1  0  0  0  0
  4  5  2  0  0  0  0
  5 10  1  0  0  0  0
  5  6  1  0  0  0  0
  6 11  1  0  0  0  0
  7 12  1  0  0  0  0
  7  6  2  0  0  0  0
  8  7  1  0  0  0  0
 13  8  1  0  0  0  0
M  RAD  4   2   2   3   3   4   2   9   2
M  END
