Coordinates from ORCA-job PhN2+_B3LYPG-6-31G_dp-d09-49-n800
 OpenBabel11261919563D

 13 12  0  0  0  0  0  0  0  0999 V2000
   -1.2547   -0.2540   -0.0594 C   0  0  0  0  0  0  0  0  0  0  0  0
   -2.6304   -0.3049   -0.1055 N   0  0  0  0  0  0  0  0  0  0  0  0
   -3.7439   -0.3456   -0.1425 N   0  0  0  0  0  0  0  0  0  0  0  0
   -0.6244    0.9857   -0.0371 C   0  0  0  0  0  0  0  0  0  0  0  0
    0.7368    1.0988    0.0084 C   0  0  0  0  0  0  0  0  0  0  0  0
    1.4822   -0.1007    0.0322 C   0  0  0  0  0  0  0  0  0  0  0  0
    0.8591   -1.3606    0.0100 C   0  0  0  0  0  0  0  0  0  0  0  0
   -0.5200   -1.4695   -0.0362 C   0  0  0  0  0  0  0  0  0  0  0  0
   -2.6992    4.1969   -0.0984 H   0  0  0  0  0  0  0  0  0  0  0  0
    1.2437    2.0599    0.0262 H   0  0  0  0  0  0  0  0  0  0  0  0
    2.5672   -0.0393    0.0689 H   0  0  0  0  0  0  0  0  0  0  0  0
    1.4640   -2.2607    0.0294 H   0  0  0  0  0  0  0  0  0  0  0  0
   -1.0287   -2.4290   -0.0542 H   0  0  0  0  0  0  0  0  0  0  0  0
  1  4  2  0  0  0  0
  1  8  1  0  0  0  0
  2  1  1  0  0  0  0
  3  2  1  0  0  0  0
  4  5  1  0  0  0  0
  5 10  1  0  0  0  0
  5  6  2  0  0  0  0
  6 11  1  0  0  0  0
  7 12  1  0  0  0  0
  7  6  1  0  0  0  0
  8  7  2  0  0  0  0
 13  8  1  0  0  0  0
M  RAD  4   2   2   3   3   4   2   9   2
M  END
