Coordinates from ORCA-job PhN2+_B3LYPG-6-31G_dp-d09-49-n800
 OpenBabel11261919563D

 13 12  0  0  0  0  0  0  0  0999 V2000
   -1.2863   -0.1786   -0.0600 C   0  0  0  0  0  0  0  0  0  0  0  0
   -2.6592   -0.2116   -0.1053 N   0  0  0  0  0  0  0  0  0  0  0  0
   -3.7729   -0.2397   -0.1427 N   0  0  0  0  0  0  0  0  0  0  0  0
   -0.6361    1.0528   -0.0367 C   0  0  0  0  0  0  0  0  0  0  0  0
    0.7245    1.1595    0.0087 C   0  0  0  0  0  0  0  0  0  0  0  0
    1.4560   -0.0482    0.0314 C   0  0  0  0  0  0  0  0  0  0  0  0
    0.8207   -1.3014    0.0083 C   0  0  0  0  0  0  0  0  0  0  0  0
   -0.5603   -1.3976   -0.0377 C   0  0  0  0  0  0  0  0  0  0  0  0
   -2.3498    3.3824   -0.0901 H   0  0  0  0  0  0  0  0  0  0  0  0
    1.2338    2.1180    0.0271 H   0  0  0  0  0  0  0  0  0  0  0  0
    2.5413    0.0019    0.0680 H   0  0  0  0  0  0  0  0  0  0  0  0
    1.4165   -2.2075    0.0269 H   0  0  0  0  0  0  0  0  0  0  0  0
   -1.0766   -2.3527   -0.0563 H   0  0  0  0  0  0  0  0  0  0  0  0
  1  8  2  0  0  0  0
  1  4  1  0  0  0  0
  2  1  1  0  0  0  0
  3  2  1  0  0  0  0
  4  5  2  0  0  0  0
  5 10  1  0  0  0  0
  5  6  1  0  0  0  0
  6 11  1  0  0  0  0
  7 12  1  0  0  0  0
  7  6  2  0  0  0  0
  8  7  1  0  0  0  0
 13  8  1  0  0  0  0
M  RAD  4   2   2   3   3   4   2   9   2
M  END
