Coordinates from ORCA-job PhN2+_B3LYPG-6-31G_dp-d09-49-n800
 OpenBabel11261919563D

 13 12  0  0  0  0  0  0  0  0999 V2000
   -1.2500   -0.3327   -0.0585 C   0  0  0  0  0  0  0  0  0  0  0  0
   -2.6252   -0.4176   -0.1026 N   0  0  0  0  0  0  0  0  0  0  0  0
   -3.7373   -0.4822   -0.1495 N   0  0  0  0  0  0  0  0  0  0  0  0
   -0.6559    0.9257   -0.0386 C   0  0  0  0  0  0  0  0  0  0  0  0
    0.7049    1.0651    0.0063 C   0  0  0  0  0  0  0  0  0  0  0  0
    1.4794   -0.1151    0.0314 C   0  0  0  0  0  0  0  0  0  0  0  0
    0.8872   -1.3901    0.0113 C   0  0  0  0  0  0  0  0  0  0  0  0
   -0.4884   -1.5317   -0.0340 C   0  0  0  0  0  0  0  0  0  0  0  0
   -2.7570    4.8246   -0.0961 H   0  0  0  0  0  0  0  0  0  0  0  0
    1.1918    2.0369    0.0227 H   0  0  0  0  0  0  0  0  0  0  0  0
    2.5627   -0.0276    0.0676 H   0  0  0  0  0  0  0  0  0  0  0  0
    1.5139   -2.2752    0.0318 H   0  0  0  0  0  0  0  0  0  0  0  0
   -0.9745   -2.5029   -0.0502 H   0  0  0  0  0  0  0  0  0  0  0  0
  1  4  2  0  0  0  0
  1  8  1  0  0  0  0
  2  1  1  0  0  0  0
  3  2  1  0  0  0  0
  4  5  1  0  0  0  0
  5 10  1  0  0  0  0
  5  6  2  0  0  0  0
  6 11  1  0  0  0  0
  7  6  1  0  0  0  0
  7 12  1  0  0  0  0
  8  7  2  0  0  0  0
 13  8  1  0  0  0  0
M  RAD  4   2   2   3   3   4   2   9   2
M  END
