Coordinates from ORCA-job PhN2+_B3LYPG-6-31G_dp-d09-49-n800
 OpenBabel11261919563D

 13 12  0  0  0  0  0  0  0  0999 V2000
   -1.2538   -0.2592   -0.0596 C   0  0  0  0  0  0  0  0  0  0  0  0
   -2.6295   -0.3123   -0.1054 N   0  0  0  0  0  0  0  0  0  0  0  0
   -3.7430   -0.3546   -0.1420 N   0  0  0  0  0  0  0  0  0  0  0  0
   -0.6262    0.9822   -0.0374 C   0  0  0  0  0  0  0  0  0  0  0  0
    0.7352    1.0959    0.0083 C   0  0  0  0  0  0  0  0  0  0  0  0
    1.4823   -0.1023    0.0323 C   0  0  0  0  0  0  0  0  0  0  0  0
    0.8611   -1.3632    0.0100 C   0  0  0  0  0  0  0  0  0  0  0  0
   -0.5177   -1.4738   -0.0363 C   0  0  0  0  0  0  0  0  0  0  0  0
   -2.7078    4.2426   -0.0987 H   0  0  0  0  0  0  0  0  0  0  0  0
    1.2414    2.0575    0.0263 H   0  0  0  0  0  0  0  0  0  0  0  0
    2.5673   -0.0394    0.0692 H   0  0  0  0  0  0  0  0  0  0  0  0
    1.4673   -2.2625    0.0295 H   0  0  0  0  0  0  0  0  0  0  0  0
   -1.0253   -2.4339   -0.0543 H   0  0  0  0  0  0  0  0  0  0  0  0
  1  4  2  0  0  0  0
  1  8  1  0  0  0  0
  2  1  1  0  0  0  0
  3  2  1  0  0  0  0
  4  5  1  0  0  0  0
  5 10  1  0  0  0  0
  5  6  2  0  0  0  0
  6 11  1  0  0  0  0
  7 12  1  0  0  0  0
  7  6  1  0  0  0  0
  8  7  2  0  0  0  0
 13  8  1  0  0  0  0
M  RAD  4   2   2   3   3   4   2   9   2
M  END
