Coordinates from ORCA-job PhN2+_B3LYPG-6-31G_dp-d09-49-n800
 OpenBabel11261919563D

 13 12  0  0  0  0  0  0  0  0999 V2000
   -1.2540   -0.2586   -0.0596 C   0  0  0  0  0  0  0  0  0  0  0  0
   -2.6296   -0.3114   -0.1053 N   0  0  0  0  0  0  0  0  0  0  0  0
   -3.7431   -0.3534   -0.1422 N   0  0  0  0  0  0  0  0  0  0  0  0
   -0.6259    0.9826   -0.0373 C   0  0  0  0  0  0  0  0  0  0  0  0
    0.7355    1.0963    0.0083 C   0  0  0  0  0  0  0  0  0  0  0  0
    1.4824   -0.1022    0.0322 C   0  0  0  0  0  0  0  0  0  0  0  0
    0.8609   -1.3629    0.0100 C   0  0  0  0  0  0  0  0  0  0  0  0
   -0.5180   -1.4733   -0.0363 C   0  0  0  0  0  0  0  0  0  0  0  0
   -2.7070    4.2373   -0.0987 H   0  0  0  0  0  0  0  0  0  0  0  0
    1.2418    2.0578    0.0262 H   0  0  0  0  0  0  0  0  0  0  0  0
    2.5673   -0.0394    0.0691 H   0  0  0  0  0  0  0  0  0  0  0  0
    1.4669   -2.2623    0.0295 H   0  0  0  0  0  0  0  0  0  0  0  0
   -1.0256   -2.4334   -0.0543 H   0  0  0  0  0  0  0  0  0  0  0  0
  1  4  2  0  0  0  0
  1  8  1  0  0  0  0
  2  1  1  0  0  0  0
  3  2  1  0  0  0  0
  4  5  1  0  0  0  0
  5 10  1  0  0  0  0
  5  6  2  0  0  0  0
  6 11  1  0  0  0  0
  7 12  1  0  0  0  0
  7  6  1  0  0  0  0
  8  7  2  0  0  0  0
 13  8  1  0  0  0  0
M  RAD  4   2   2   3   3   4   2   9   2
M  END
