Coordinates from ORCA-job PhN2+_B3LYPG-6-31G_dp-d09-49-n800
 OpenBabel11261919563D

 13 12  0  0  0  0  0  0  0  0999 V2000
   -1.3208   -0.1374   -0.0612 C   0  0  0  0  0  0  0  0  0  0  0  0
   -2.6917   -0.1810   -0.1065 N   0  0  0  0  0  0  0  0  0  0  0  0
   -3.8052   -0.2181   -0.1432 N   0  0  0  0  0  0  0  0  0  0  0  0
   -0.6843    1.1065   -0.0383 C   0  0  0  0  0  0  0  0  0  0  0  0
    0.6816    1.2077    0.0074 C   0  0  0  0  0  0  0  0  0  0  0  0
    1.4188    0.0073    0.0302 C   0  0  0  0  0  0  0  0  0  0  0  0
    0.7915   -1.2494    0.0074 C   0  0  0  0  0  0  0  0  0  0  0  0
   -0.5899   -1.3503   -0.0387 C   0  0  0  0  0  0  0  0  0  0  0  0
   -1.9230    2.8222   -0.0767 H   0  0  0  0  0  0  0  0  0  0  0  0
    1.1812    2.1697    0.0254 H   0  0  0  0  0  0  0  0  0  0  0  0
    2.5035    0.0609    0.0669 H   0  0  0  0  0  0  0  0  0  0  0  0
    1.3904   -2.1532    0.0261 H   0  0  0  0  0  0  0  0  0  0  0  0
   -1.1006   -2.3077   -0.0571 H   0  0  0  0  0  0  0  0  0  0  0  0
  1  8  2  0  0  0  0
  1  4  1  0  0  0  0
  2  1  1  0  0  0  0
  3  2  1  0  0  0  0
  4  5  2  0  0  0  0
  5 10  1  0  0  0  0
  5  6  1  0  0  0  0
  6 11  1  0  0  0  0
  7 12  1  0  0  0  0
  7  6  2  0  0  0  0
  8  7  1  0  0  0  0
 13  8  1  0  0  0  0
M  RAD  4   2   2   3   3   4   2   9   2
M  END
