Coordinates from ORCA-job PhN2+_B3LYPG-6-31G_dp-d09-49-n800
 OpenBabel11261919563D

 13 12  0  0  0  0  0  0  0  0999 V2000
   -1.2847   -0.1804   -0.0600 C   0  0  0  0  0  0  0  0  0  0  0  0
   -2.6578   -0.2134   -0.1055 N   0  0  0  0  0  0  0  0  0  0  0  0
   -3.7714   -0.2419   -0.1422 N   0  0  0  0  0  0  0  0  0  0  0  0
   -0.6343    1.0507   -0.0367 C   0  0  0  0  0  0  0  0  0  0  0  0
    0.7263    1.1571    0.0088 C   0  0  0  0  0  0  0  0  0  0  0  0
    1.4576   -0.0506    0.0315 C   0  0  0  0  0  0  0  0  0  0  0  0
    0.8220   -1.3038    0.0084 C   0  0  0  0  0  0  0  0  0  0  0  0
   -0.5590   -1.3997   -0.0378 C   0  0  0  0  0  0  0  0  0  0  0  0
   -2.3681    3.4090   -0.0908 H   0  0  0  0  0  0  0  0  0  0  0  0
    1.2359    2.1155    0.0272 H   0  0  0  0  0  0  0  0  0  0  0  0
    2.5429   -0.0008    0.0682 H   0  0  0  0  0  0  0  0  0  0  0  0
    1.4176   -2.2100    0.0269 H   0  0  0  0  0  0  0  0  0  0  0  0
   -1.0755   -2.3547   -0.0563 H   0  0  0  0  0  0  0  0  0  0  0  0
  1  8  2  0  0  0  0
  1  4  1  0  0  0  0
  2  1  1  0  0  0  0
  3  2  1  0  0  0  0
  4  5  2  0  0  0  0
  5 10  1  0  0  0  0
  5  6  1  0  0  0  0
  6 11  1  0  0  0  0
  7 12  1  0  0  0  0
  7  6  2  0  0  0  0
  8  7  1  0  0  0  0
 13  8  1  0  0  0  0
M  RAD  4   2   2   3   3   4   2   9   2
M  END
