Coordinates from ORCA-job PhN2+_B3LYPG-6-31G_dp-d09-49-n800
 OpenBabel11261919563D

 13 12  0  0  0  0  0  0  0  0999 V2000
   -1.2501   -0.3057   -0.0596 C   0  0  0  0  0  0  0  0  0  0  0  0
   -2.6258   -0.3776   -0.1059 N   0  0  0  0  0  0  0  0  0  0  0  0
   -3.7387   -0.4330   -0.1432 N   0  0  0  0  0  0  0  0  0  0  0  0
   -0.6424    0.9452   -0.0384 C   0  0  0  0  0  0  0  0  0  0  0  0
    0.7182    1.0751    0.0072 C   0  0  0  0  0  0  0  0  0  0  0  0
    1.4821   -0.1123    0.0321 C   0  0  0  0  0  0  0  0  0  0  0  0
    0.8782   -1.3819    0.0109 C   0  0  0  0  0  0  0  0  0  0  0  0
   -0.4989   -1.5112   -0.0354 C   0  0  0  0  0  0  0  0  0  0  0  0
   -2.7533    4.6210   -0.0980 H   0  0  0  0  0  0  0  0  0  0  0  0
    1.2128    2.0430    0.0244 H   0  0  0  0  0  0  0  0  0  0  0  0
    2.5661   -0.0346    0.0690 H   0  0  0  0  0  0  0  0  0  0  0  0
    1.4967   -2.2727    0.0312 H   0  0  0  0  0  0  0  0  0  0  0  0
   -0.9935   -2.4781   -0.0527 H   0  0  0  0  0  0  0  0  0  0  0  0
  1  4  2  0  0  0  0
  1  8  1  0  0  0  0
  2  1  1  0  0  0  0
  3  2  1  0  0  0  0
  4  5  1  0  0  0  0
  5 10  1  0  0  0  0
  5  6  2  0  0  0  0
  6 11  1  0  0  0  0
  7 12  1  0  0  0  0
  7  6  1  0  0  0  0
  8  7  2  0  0  0  0
 13  8  1  0  0  0  0
M  RAD  4   2   2   3   3   4   2   9   2
M  END
