Coordinates from ORCA-job PhN2+_B3LYPG-6-31G_dp-d09-49-n800
 OpenBabel11261919553D

 13 13  0  0  0  0  0  0  0  0999 V2000
   -1.3428   -0.1004   -0.0618 C   0  0  0  0  0  0  0  0  0  0  0  0
   -2.7141   -0.1638   -0.1071 N   0  0  0  0  0  0  0  0  0  0  0  0
   -3.8275   -0.2160   -0.1440 N   0  0  0  0  0  0  0  0  0  0  0  0
   -0.7329    1.1659   -0.0397 C   0  0  0  0  0  0  0  0  0  0  0  0
    0.6444    1.2398    0.0062 C   0  0  0  0  0  0  0  0  0  0  0  0
    1.3898    0.0493    0.0293 C   0  0  0  0  0  0  0  0  0  0  0  0
    0.7692   -1.2098    0.0067 C   0  0  0  0  0  0  0  0  0  0  0  0
   -0.6124   -1.3102   -0.0394 C   0  0  0  0  0  0  0  0  0  0  0  0
   -1.5854    2.3946   -0.0663 H   0  0  0  0  0  0  0  0  0  0  0  0
    1.1418    2.2027    0.0242 H   0  0  0  0  0  0  0  0  0  0  0  0
    2.4737    0.1062    0.0659 H   0  0  0  0  0  0  0  0  0  0  0  0
    1.3689   -2.1130    0.0253 H   0  0  0  0  0  0  0  0  0  0  0  0
   -1.1213   -2.2680   -0.0577 H   0  0  0  0  0  0  0  0  0  0  0  0
  1  4  2  0  0  0  0
  1  8  1  0  0  0  0
  2  1  1  0  0  0  0
  3  2  1  0  0  0  0
  4  5  1  0  0  0  0
  5 10  1  0  0  0  0
  5  6  2  0  0  0  0
  6 11  1  0  0  0  0
  7 12  1  0  0  0  0
  7  6  1  0  0  0  0
  8  7  2  0  0  0  0
  9  4  1  0  0  0  0
 13  8  1  0  0  0  0
M  RAD  2   2   2   3   3
M  END
