Coordinates from ORCA-job PhN2+_B3LYPG-6-31G_dp-d09-49-n800
 OpenBabel11261919563D

 13 12  0  0  0  0  0  0  0  0999 V2000
   -1.2656   -0.2149   -0.0593 C   0  0  0  0  0  0  0  0  0  0  0  0
   -2.6404   -0.2535   -0.1046 N   0  0  0  0  0  0  0  0  0  0  0  0
   -3.7540   -0.2857   -0.1431 N   0  0  0  0  0  0  0  0  0  0  0  0
   -0.6213    1.0183   -0.0365 C   0  0  0  0  0  0  0  0  0  0  0  0
    0.7397    1.1246    0.0089 C   0  0  0  0  0  0  0  0  0  0  0  0
    1.4748   -0.0814    0.0319 C   0  0  0  0  0  0  0  0  0  0  0  0
    0.8416   -1.3360    0.0091 C   0  0  0  0  0  0  0  0  0  0  0  0
   -0.5386   -1.4346   -0.0369 C   0  0  0  0  0  0  0  0  0  0  0  0
   -2.5815    3.8179   -0.0962 H   0  0  0  0  0  0  0  0  0  0  0  0
    1.2514    2.0827    0.0271 H   0  0  0  0  0  0  0  0  0  0  0  0
    2.5602   -0.0289    0.0685 H   0  0  0  0  0  0  0  0  0  0  0  0
    1.4393   -2.2409    0.0279 H   0  0  0  0  0  0  0  0  0  0  0  0
   -1.0539   -2.3905   -0.0552 H   0  0  0  0  0  0  0  0  0  0  0  0
  1  8  2  0  0  0  0
  1  4  1  0  0  0  0
  2  1  1  0  0  0  0
  3  2  1  0  0  0  0
  4  5  2  0  0  0  0
  5 10  1  0  0  0  0
  5  6  1  0  0  0  0
  6 11  1  0  0  0  0
  7 12  1  0  0  0  0
  7  6  2  0  0  0  0
  8  7  1  0  0  0  0
 13  8  1  0  0  0  0
M  RAD  4   2   2   3   3   4   2   9   2
M  END
