Coordinates from ORCA-job PhN2+_B3LYPG-6-31G_dp-d09-49-n800
 OpenBabel11261919563D

 13 12  0  0  0  0  0  0  0  0999 V2000
   -1.2795   -0.1885   -0.0599 C   0  0  0  0  0  0  0  0  0  0  0  0
   -2.6531   -0.2223   -0.1054 N   0  0  0  0  0  0  0  0  0  0  0  0
   -3.7667   -0.2513   -0.1421 N   0  0  0  0  0  0  0  0  0  0  0  0
   -0.6300    1.0426   -0.0366 C   0  0  0  0  0  0  0  0  0  0  0  0
    0.7306    1.1488    0.0089 C   0  0  0  0  0  0  0  0  0  0  0  0
    1.4624   -0.0589    0.0316 C   0  0  0  0  0  0  0  0  0  0  0  0
    0.8270   -1.3121    0.0085 C   0  0  0  0  0  0  0  0  0  0  0  0
   -0.5539   -1.4082   -0.0376 C   0  0  0  0  0  0  0  0  0  0  0  0
   -2.4265    3.5101   -0.0925 H   0  0  0  0  0  0  0  0  0  0  0  0
    1.2412    2.1069    0.0273 H   0  0  0  0  0  0  0  0  0  0  0  0
    2.5478   -0.0087    0.0683 H   0  0  0  0  0  0  0  0  0  0  0  0
    1.4227   -2.2182    0.0272 H   0  0  0  0  0  0  0  0  0  0  0  0
   -1.0704   -2.3632   -0.0562 H   0  0  0  0  0  0  0  0  0  0  0  0
  1  8  2  0  0  0  0
  1  4  1  0  0  0  0
  2  1  1  0  0  0  0
  3  2  1  0  0  0  0
  4  5  2  0  0  0  0
  5 10  1  0  0  0  0
  5  6  1  0  0  0  0
  6 11  1  0  0  0  0
  7 12  1  0  0  0  0
  7  6  2  0  0  0  0
  8  7  1  0  0  0  0
 13  8  1  0  0  0  0
M  RAD  4   2   2   3   3   4   2   9   2
M  END
