Coordinates from ORCA-job PhN2+_B3LYPG-6-31G_dp-d09-49-n800
 OpenBabel11261919563D

 13 12  0  0  0  0  0  0  0  0999 V2000
   -1.3308   -0.1226   -0.0615 C   0  0  0  0  0  0  0  0  0  0  0  0
   -2.7015   -0.1736   -0.1068 N   0  0  0  0  0  0  0  0  0  0  0  0
   -3.8150   -0.2165   -0.1435 N   0  0  0  0  0  0  0  0  0  0  0  0
   -0.7041    1.1296   -0.0389 C   0  0  0  0  0  0  0  0  0  0  0  0
    0.6660    1.2218    0.0069 C   0  0  0  0  0  0  0  0  0  0  0  0
    1.4063    0.0254    0.0298 C   0  0  0  0  0  0  0  0  0  0  0  0
    0.7820   -1.2326    0.0071 C   0  0  0  0  0  0  0  0  0  0  0  0
   -0.5994   -1.3339   -0.0390 C   0  0  0  0  0  0  0  0  0  0  0  0
   -1.7792    2.6424   -0.0722 H   0  0  0  0  0  0  0  0  0  0  0  0
    1.1639    2.1844    0.0249 H   0  0  0  0  0  0  0  0  0  0  0  0
    2.4906    0.0802    0.0665 H   0  0  0  0  0  0  0  0  0  0  0  0
    1.3815   -2.1359    0.0258 H   0  0  0  0  0  0  0  0  0  0  0  0
   -1.1089   -2.2917   -0.0573 H   0  0  0  0  0  0  0  0  0  0  0  0
  1  8  2  0  0  0  0
  1  4  1  0  0  0  0
  2  1  1  0  0  0  0
  3  2  1  0  0  0  0
  4  5  2  0  0  0  0
  5 10  1  0  0  0  0
  5  6  1  0  0  0  0
  6 11  1  0  0  0  0
  7 12  1  0  0  0  0
  7  6  2  0  0  0  0
  8  7  1  0  0  0  0
 13  8  1  0  0  0  0
M  RAD  4   2   2   3   3   4   2   9   2
M  END
