Coordinates from ORCA-job PhN2+_B3LYPG-6-31G_dp-d09-49-n800
 OpenBabel11261919563D

 13 12  0  0  0  0  0  0  0  0999 V2000
   -1.2789   -0.1898   -0.0598 C   0  0  0  0  0  0  0  0  0  0  0  0
   -2.6525   -0.2237   -0.1051 N   0  0  0  0  0  0  0  0  0  0  0  0
   -3.7662   -0.2527   -0.1425 N   0  0  0  0  0  0  0  0  0  0  0  0
   -0.6291    1.0411   -0.0365 C   0  0  0  0  0  0  0  0  0  0  0  0
    0.7315    1.1477    0.0089 C   0  0  0  0  0  0  0  0  0  0  0  0
    1.4633   -0.0601    0.0316 C   0  0  0  0  0  0  0  0  0  0  0  0
    0.8277   -1.3133    0.0086 C   0  0  0  0  0  0  0  0  0  0  0  0
   -0.5531   -1.4095   -0.0375 C   0  0  0  0  0  0  0  0  0  0  0  0
   -2.4358    3.5259   -0.0927 H   0  0  0  0  0  0  0  0  0  0  0  0
    1.2421    2.1058    0.0272 H   0  0  0  0  0  0  0  0  0  0  0  0
    2.5487   -0.0101    0.0682 H   0  0  0  0  0  0  0  0  0  0  0  0
    1.4235   -2.2194    0.0272 H   0  0  0  0  0  0  0  0  0  0  0  0
   -1.0696   -2.3647   -0.0560 H   0  0  0  0  0  0  0  0  0  0  0  0
  1  8  2  0  0  0  0
  1  4  1  0  0  0  0
  2  1  1  0  0  0  0
  3  2  1  0  0  0  0
  4  5  2  0  0  0  0
  5 10  1  0  0  0  0
  5  6  1  0  0  0  0
  6 11  1  0  0  0  0
  7 12  1  0  0  0  0
  7  6  2  0  0  0  0
  8  7  1  0  0  0  0
 13  8  1  0  0  0  0
M  RAD  4   2   2   3   3   4   2   9   2
M  END
