Coordinates from ORCA-job PhN2+_B3LYPG-6-31G_dp-d09-49-n800
 OpenBabel11261919563D

 13 12  0  0  0  0  0  0  0  0999 V2000
   -1.2904   -0.1732   -0.0597 C   0  0  0  0  0  0  0  0  0  0  0  0
   -2.6630   -0.2066   -0.1047 N   0  0  0  0  0  0  0  0  0  0  0  0
   -3.7765   -0.2352   -0.1446 N   0  0  0  0  0  0  0  0  0  0  0  0
   -0.6401    1.0584   -0.0366 C   0  0  0  0  0  0  0  0  0  0  0  0
    0.7206    1.1655    0.0085 C   0  0  0  0  0  0  0  0  0  0  0  0
    1.4521   -0.0419    0.0311 C   0  0  0  0  0  0  0  0  0  0  0  0
    0.8172   -1.2953    0.0082 C   0  0  0  0  0  0  0  0  0  0  0  0
   -0.5640   -1.3918   -0.0375 C   0  0  0  0  0  0  0  0  0  0  0  0
   -2.3037    3.3130   -0.0880 H   0  0  0  0  0  0  0  0  0  0  0  0
    1.2288    2.1244    0.0266 H   0  0  0  0  0  0  0  0  0  0  0  0
    2.5374    0.0081    0.0674 H   0  0  0  0  0  0  0  0  0  0  0  0
    1.4130   -2.2013    0.0268 H   0  0  0  0  0  0  0  0  0  0  0  0
   -1.0798   -2.3471   -0.0558 H   0  0  0  0  0  0  0  0  0  0  0  0
  1  8  2  0  0  0  0
  1  4  1  0  0  0  0
  2  1  1  0  0  0  0
  3  2  1  0  0  0  0
  4  5  2  0  0  0  0
  5 10  1  0  0  0  0
  5  6  1  0  0  0  0
  6 11  1  0  0  0  0
  7 12  1  0  0  0  0
  7  6  2  0  0  0  0
  8  7  1  0  0  0  0
 13  8  1  0  0  0  0
M  RAD  4   2   2   3   3   4   2   9   2
M  END
