Coordinates from ORCA-job PhN2+_B3LYPG-6-31G_dp-d09-49-n800
 OpenBabel11261919553D

 13 13  0  0  0  0  0  0  0  0999 V2000
   -1.3547   -0.0750   -0.0618 C   0  0  0  0  0  0  0  0  0  0  0  0
   -2.7275   -0.1504   -0.1071 N   0  0  0  0  0  0  0  0  0  0  0  0
   -3.8407   -0.2111   -0.1461 N   0  0  0  0  0  0  0  0  0  0  0  0
   -0.7629    1.2058   -0.0403 C   0  0  0  0  0  0  0  0  0  0  0  0
    0.6215    1.2590    0.0054 C   0  0  0  0  0  0  0  0  0  0  0  0
    1.3732    0.0747    0.0286 C   0  0  0  0  0  0  0  0  0  0  0  0
    0.7558   -1.1849    0.0062 C   0  0  0  0  0  0  0  0  0  0  0  0
   -0.6263   -1.2836   -0.0394 C   0  0  0  0  0  0  0  0  0  0  0  0
   -1.3823    2.1149   -0.0593 H   0  0  0  0  0  0  0  0  0  0  0  0
    1.1188    2.2227    0.0233 H   0  0  0  0  0  0  0  0  0  0  0  0
    2.4568    0.1345    0.0648 H   0  0  0  0  0  0  0  0  0  0  0  0
    1.3552   -2.0883    0.0247 H   0  0  0  0  0  0  0  0  0  0  0  0
   -1.1353   -2.2411   -0.0575 H   0  0  0  0  0  0  0  0  0  0  0  0
  1  4  2  0  0  0  0
  1  8  1  0  0  0  0
  2  1  1  0  0  0  0
  3  2  1  0  0  0  0
  4  5  1  0  0  0  0
  5 10  1  0  0  0  0
  5  6  2  0  0  0  0
  6 11  1  0  0  0  0
  7 12  1  0  0  0  0
  7  6  1  0  0  0  0
  8  7  2  0  0  0  0
  9  4  1  0  0  0  0
 13  8  1  0  0  0  0
M  RAD  2   2   2   3   3
M  END
