Coordinates from ORCA-job PhN2+_B3LYPG-6-31G_dp-d09-49-n800
 OpenBabel11261919553D

 13 12  0  0  0  0  0  0  0  0999 V2000
   -1.3387   -0.1086   -0.0617 C   0  0  0  0  0  0  0  0  0  0  0  0
   -2.7096   -0.1674   -0.1070 N   0  0  0  0  0  0  0  0  0  0  0  0
   -3.8231   -0.2161   -0.1438 N   0  0  0  0  0  0  0  0  0  0  0  0
   -0.7224    1.1524   -0.0394 C   0  0  0  0  0  0  0  0  0  0  0  0
    0.6522    1.2335    0.0065 C   0  0  0  0  0  0  0  0  0  0  0  0
    1.3956    0.0408    0.0295 C   0  0  0  0  0  0  0  0  0  0  0  0
    0.7737   -1.2180    0.0068 C   0  0  0  0  0  0  0  0  0  0  0  0
   -0.6078   -1.3189   -0.0393 C   0  0  0  0  0  0  0  0  0  0  0  0
   -1.6545    2.4843   -0.0684 H   0  0  0  0  0  0  0  0  0  0  0  0
    1.1495    2.1963    0.0245 H   0  0  0  0  0  0  0  0  0  0  0  0
    2.4797    0.0969    0.0661 H   0  0  0  0  0  0  0  0  0  0  0  0
    1.3735   -2.1212    0.0255 H   0  0  0  0  0  0  0  0  0  0  0  0
   -1.1167   -2.2767   -0.0576 H   0  0  0  0  0  0  0  0  0  0  0  0
  1  4  2  0  0  0  0
  1  8  1  0  0  0  0
  2  1  1  0  0  0  0
  3  2  1  0  0  0  0
  4  5  1  0  0  0  0
  5 10  1  0  0  0  0
  5  6  2  0  0  0  0
  6 11  1  0  0  0  0
  7 12  1  0  0  0  0
  7  6  1  0  0  0  0
  8  7  2  0  0  0  0
 13  8  1  0  0  0  0
M  RAD  4   2   2   3   3   4   2   9   2
M  END
