Coordinates from ORCA-job PhN2+_B3LYPG-6-31G_dp-d09-49-n800
 OpenBabel11261919563D

 13 12  0  0  0  0  0  0  0  0999 V2000
   -1.2575   -0.2404   -0.0595 C   0  0  0  0  0  0  0  0  0  0  0  0
   -2.6329   -0.2868   -0.1051 N   0  0  0  0  0  0  0  0  0  0  0  0
   -3.7465   -0.3246   -0.1423 N   0  0  0  0  0  0  0  0  0  0  0  0
   -0.6224    0.9974   -0.0369 C   0  0  0  0  0  0  0  0  0  0  0  0
    0.7389    1.1067    0.0086 C   0  0  0  0  0  0  0  0  0  0  0  0
    1.4803   -0.0952    0.0322 C   0  0  0  0  0  0  0  0  0  0  0  0
    0.8534   -1.3531    0.0097 C   0  0  0  0  0  0  0  0  0  0  0  0
   -0.5261   -1.4577   -0.0366 C   0  0  0  0  0  0  0  0  0  0  0  0
   -2.6674    4.0725   -0.0981 H   0  0  0  0  0  0  0  0  0  0  0  0
    1.2483    2.0664    0.0267 H   0  0  0  0  0  0  0  0  0  0  0  0
    2.5655   -0.0372    0.0689 H   0  0  0  0  0  0  0  0  0  0  0  0
    1.4555   -2.2551    0.0289 H   0  0  0  0  0  0  0  0  0  0  0  0
   -1.0377   -2.4156   -0.0547 H   0  0  0  0  0  0  0  0  0  0  0  0
  1  4  2  0  0  0  0
  1  8  1  0  0  0  0
  2  1  1  0  0  0  0
  3  2  1  0  0  0  0
  4  5  1  0  0  0  0
  5 10  1  0  0  0  0
  5  6  2  0  0  0  0
  6 11  1  0  0  0  0
  7 12  1  0  0  0  0
  7  6  1  0  0  0  0
  8  7  2  0  0  0  0
 13  8  1  0  0  0  0
M  RAD  4   2   2   3   3   4   2   9   2
M  END
