Coordinates from ORCA-job PhN2+_B3LYPG-6-31G_dp-d09-49-n800
 OpenBabel11261919553D

 13 13  0  0  0  0  0  0  0  0999 V2000
   -1.3425   -0.1011   -0.0618 C   0  0  0  0  0  0  0  0  0  0  0  0
   -2.7137   -0.1641   -0.1071 N   0  0  0  0  0  0  0  0  0  0  0  0
   -3.8272   -0.2160   -0.1440 N   0  0  0  0  0  0  0  0  0  0  0  0
   -0.7321    1.1648   -0.0397 C   0  0  0  0  0  0  0  0  0  0  0  0
    0.6450    1.2393    0.0062 C   0  0  0  0  0  0  0  0  0  0  0  0
    1.3902    0.0487    0.0293 C   0  0  0  0  0  0  0  0  0  0  0  0
    0.7695   -1.2105    0.0067 C   0  0  0  0  0  0  0  0  0  0  0  0
   -0.6120   -1.3109   -0.0394 C   0  0  0  0  0  0  0  0  0  0  0  0
   -1.5907    2.4015   -0.0664 H   0  0  0  0  0  0  0  0  0  0  0  0
    1.1424    2.2022    0.0243 H   0  0  0  0  0  0  0  0  0  0  0  0
    2.4742    0.1055    0.0659 H   0  0  0  0  0  0  0  0  0  0  0  0
    1.3693   -2.1137    0.0254 H   0  0  0  0  0  0  0  0  0  0  0  0
   -1.1209   -2.2686   -0.0577 H   0  0  0  0  0  0  0  0  0  0  0  0
  1  4  2  0  0  0  0
  1  8  1  0  0  0  0
  2  1  1  0  0  0  0
  3  2  1  0  0  0  0
  4  5  1  0  0  0  0
  5 10  1  0  0  0  0
  5  6  2  0  0  0  0
  6 11  1  0  0  0  0
  7 12  1  0  0  0  0
  7  6  1  0  0  0  0
  8  7  2  0  0  0  0
  9  4  1  0  0  0  0
 13  8  1  0  0  0  0
M  RAD  2   2   2   3   3
M  END
