Coordinates from ORCA-job PhN2+_B3LYPG-6-31G_dp-d09-49-n800
 OpenBabel11261919553D

 13 13  0  0  0  0  0  0  0  0999 V2000
   -1.3598   -0.0648   -0.0612 C   0  0  0  0  0  0  0  0  0  0  0  0
   -2.7334   -0.1427   -0.1062 N   0  0  0  0  0  0  0  0  0  0  0  0
   -3.8464   -0.2052   -0.1492 N   0  0  0  0  0  0  0  0  0  0  0  0
   -0.7738    1.2196   -0.0399 C   0  0  0  0  0  0  0  0  0  0  0  0
    0.6121    1.2677    0.0051 C   0  0  0  0  0  0  0  0  0  0  0  0
    1.3666    0.0856    0.0279 C   0  0  0  0  0  0  0  0  0  0  0  0
    0.7503   -1.1741    0.0060 C   0  0  0  0  0  0  0  0  0  0  0  0
   -0.6322   -1.2729   -0.0389 C   0  0  0  0  0  0  0  0  0  0  0  0
   -1.2994    1.9928   -0.0558 H   0  0  0  0  0  0  0  0  0  0  0  0
    1.1082    2.2323    0.0227 H   0  0  0  0  0  0  0  0  0  0  0  0
    2.4501    0.1468    0.0636 H   0  0  0  0  0  0  0  0  0  0  0  0
    1.3499   -2.0775    0.0242 H   0  0  0  0  0  0  0  0  0  0  0  0
   -1.1409   -2.2304   -0.0565 H   0  0  0  0  0  0  0  0  0  0  0  0
  1  4  2  0  0  0  0
  1  8  1  0  0  0  0
  2  1  1  0  0  0  0
  3  2  1  0  0  0  0
  4  5  1  0  0  0  0
  5 10  1  0  0  0  0
  5  6  2  0  0  0  0
  6 11  1  0  0  0  0
  7 12  1  0  0  0  0
  7  6  1  0  0  0  0
  8  7  2  0  0  0  0
  9  4  1  0  0  0  0
 13  8  1  0  0  0  0
M  RAD  2   2   2   3   3
M  END
