Coordinates from ORCA-job PhN2+_B3LYPG-6-31G_dp-d09-49-n800
 OpenBabel11261919563D

 13 12  0  0  0  0  0  0  0  0999 V2000
   -1.2516   -0.2770   -0.0596 C   0  0  0  0  0  0  0  0  0  0  0  0
   -2.6273   -0.3369   -0.1054 N   0  0  0  0  0  0  0  0  0  0  0  0
   -3.7407   -0.3839   -0.1424 N   0  0  0  0  0  0  0  0  0  0  0  0
   -0.6315    0.9682   -0.0378 C   0  0  0  0  0  0  0  0  0  0  0  0
    0.7299    1.0871    0.0080 C   0  0  0  0  0  0  0  0  0  0  0  0
    1.4830   -0.1073    0.0323 C   0  0  0  0  0  0  0  0  0  0  0  0
    0.8680   -1.3713    0.0103 C   0  0  0  0  0  0  0  0  0  0  0  0
   -0.5103   -1.4884   -0.0360 C   0  0  0  0  0  0  0  0  0  0  0  0
   -2.7330    4.3933   -0.0988 H   0  0  0  0  0  0  0  0  0  0  0  0
    1.2322    2.0508    0.0257 H   0  0  0  0  0  0  0  0  0  0  0  0
    2.5676   -0.0390    0.0692 H   0  0  0  0  0  0  0  0  0  0  0  0
    1.4785   -2.2676    0.0301 H   0  0  0  0  0  0  0  0  0  0  0  0
   -1.0133   -2.4509   -0.0538 H   0  0  0  0  0  0  0  0  0  0  0  0
  1  4  2  0  0  0  0
  1  8  1  0  0  0  0
  2  1  1  0  0  0  0
  3  2  1  0  0  0  0
  4  5  1  0  0  0  0
  5 10  1  0  0  0  0
  5  6  2  0  0  0  0
  6 11  1  0  0  0  0
  7 12  1  0  0  0  0
  7  6  1  0  0  0  0
  8  7  2  0  0  0  0
 13  8  1  0  0  0  0
M  RAD  4   2   2   3   3   4   2   9   2
M  END
