Coordinates from ORCA-job PhN2+_B3LYPG-6-31G_dp-d09-49-n800
 OpenBabel11261919563D

 13 12  0  0  0  0  0  0  0  0999 V2000
   -1.2996   -0.1634   -0.0605 C   0  0  0  0  0  0  0  0  0  0  0  0
   -2.6716   -0.1983   -0.1058 N   0  0  0  0  0  0  0  0  0  0  0  0
   -3.7851   -0.2282   -0.1425 N   0  0  0  0  0  0  0  0  0  0  0  0
   -0.6516    1.0704   -0.0372 C   0  0  0  0  0  0  0  0  0  0  0  0
    0.7098    1.1781    0.0083 C   0  0  0  0  0  0  0  0  0  0  0  0
    1.4427   -0.0277    0.0310 C   0  0  0  0  0  0  0  0  0  0  0  0
    0.8099   -1.2821    0.0079 C   0  0  0  0  0  0  0  0  0  0  0  0
   -0.5714   -1.3802   -0.0382 C   0  0  0  0  0  0  0  0  0  0  0  0
   -2.1955    3.1707   -0.0853 H   0  0  0  0  0  0  0  0  0  0  0  0
    1.2151    2.1380    0.0265 H   0  0  0  0  0  0  0  0  0  0  0  0
    2.5278    0.0234    0.0676 H   0  0  0  0  0  0  0  0  0  0  0  0
    1.4067   -2.1874    0.0265 H   0  0  0  0  0  0  0  0  0  0  0  0
   -1.0856   -2.3362   -0.0567 H   0  0  0  0  0  0  0  0  0  0  0  0
  1  8  2  0  0  0  0
  1  4  1  0  0  0  0
  2  1  1  0  0  0  0
  3  2  1  0  0  0  0
  4  5  2  0  0  0  0
  5 10  1  0  0  0  0
  5  6  1  0  0  0  0
  6 11  1  0  0  0  0
  7 12  1  0  0  0  0
  7  6  2  0  0  0  0
  8  7  1  0  0  0  0
 13  8  1  0  0  0  0
M  RAD  4   2   2   3   3   4   2   9   2
M  END
