Coordinates from ORCA-job PhN2+_B3LYPG-6-31G_dp-d09-49-n800
 OpenBabel11261919563D

 13 12  0  0  0  0  0  0  0  0999 V2000
   -1.3284   -0.1264   -0.0614 C   0  0  0  0  0  0  0  0  0  0  0  0
   -2.6991   -0.1754   -0.1067 N   0  0  0  0  0  0  0  0  0  0  0  0
   -3.8126   -0.2167   -0.1435 N   0  0  0  0  0  0  0  0  0  0  0  0
   -0.6990    1.1236   -0.0387 C   0  0  0  0  0  0  0  0  0  0  0  0
    0.6699    1.2184    0.0070 C   0  0  0  0  0  0  0  0  0  0  0  0
    1.4094    0.0209    0.0299 C   0  0  0  0  0  0  0  0  0  0  0  0
    0.7843   -1.2368    0.0072 C   0  0  0  0  0  0  0  0  0  0  0  0
   -0.5971   -1.3380   -0.0390 C   0  0  0  0  0  0  0  0  0  0  0  0
   -1.8149    2.6872   -0.0733 H   0  0  0  0  0  0  0  0  0  0  0  0
    1.1682    2.1809    0.0250 H   0  0  0  0  0  0  0  0  0  0  0  0
    2.4938    0.0754    0.0666 H   0  0  0  0  0  0  0  0  0  0  0  0
    1.3838   -2.1402    0.0259 H   0  0  0  0  0  0  0  0  0  0  0  0
   -1.1068   -2.2958   -0.0573 H   0  0  0  0  0  0  0  0  0  0  0  0
  1  8  2  0  0  0  0
  1  4  1  0  0  0  0
  2  1  1  0  0  0  0
  3  2  1  0  0  0  0
  4  5  2  0  0  0  0
  5 10  1  0  0  0  0
  5  6  1  0  0  0  0
  6 11  1  0  0  0  0
  7 12  1  0  0  0  0
  7  6  2  0  0  0  0
  8  7  1  0  0  0  0
 13  8  1  0  0  0  0
M  RAD  4   2   2   3   3   4   2   9   2
M  END
