Coordinates from ORCA-job PhN2+_B3LYPG-6-31G_dp-d09-49-n800
 OpenBabel11261919563D

 13 12  0  0  0  0  0  0  0  0999 V2000
   -1.2506   -0.3656   -0.0601 C   0  0  0  0  0  0  0  0  0  0  0  0
   -2.6251   -0.4658   -0.1059 N   0  0  0  0  0  0  0  0  0  0  0  0
   -3.7369   -0.5418   -0.1430 N   0  0  0  0  0  0  0  0  0  0  0  0
   -0.6722    0.8994   -0.0397 C   0  0  0  0  0  0  0  0  0  0  0  0
    0.6868    1.0540    0.0062 C   0  0  0  0  0  0  0  0  0  0  0  0
    1.4752   -0.1167    0.0320 C   0  0  0  0  0  0  0  0  0  0  0  0
    0.8979   -1.3988    0.0115 C   0  0  0  0  0  0  0  0  0  0  0  0
   -0.4760   -1.5561   -0.0350 C   0  0  0  0  0  0  0  0  0  0  0  0
   -2.7519    5.0633   -0.0971 H   0  0  0  0  0  0  0  0  0  0  0  0
    1.1628    2.0314    0.0229 H   0  0  0  0  0  0  0  0  0  0  0  0
    2.5574   -0.0166    0.0690 H   0  0  0  0  0  0  0  0  0  0  0  0
    1.5348   -2.2765    0.0325 H   0  0  0  0  0  0  0  0  0  0  0  0
   -0.9509   -2.5329   -0.0516 H   0  0  0  0  0  0  0  0  0  0  0  0
  1  4  2  0  0  0  0
  1  8  1  0  0  0  0
  2  1  1  0  0  0  0
  3  2  1  0  0  0  0
  4  5  1  0  0  0  0
  5 10  1  0  0  0  0
  5  6  2  0  0  0  0
  6 11  1  0  0  0  0
  7  6  1  0  0  0  0
  7 12  1  0  0  0  0
  8  7  2  0  0  0  0
 13  8  1  0  0  0  0
M  RAD  4   2   2   3   3   4   2   9   2
M  END
