Coordinates from ORCA-job PhN2+_B3LYPG-6-31G_dp-d09-49-n800
 OpenBabel11261919563D

 13 12  0  0  0  0  0  0  0  0999 V2000
   -1.2523   -0.2709   -0.0596 C   0  0  0  0  0  0  0  0  0  0  0  0
   -2.6280   -0.3285   -0.1054 N   0  0  0  0  0  0  0  0  0  0  0  0
   -3.7414   -0.3738   -0.1423 N   0  0  0  0  0  0  0  0  0  0  0  0
   -0.6295    0.9730   -0.0376 C   0  0  0  0  0  0  0  0  0  0  0  0
    0.7319    1.0900    0.0081 C   0  0  0  0  0  0  0  0  0  0  0  0
    1.4829   -0.1058    0.0323 C   0  0  0  0  0  0  0  0  0  0  0  0
    0.8657   -1.3687    0.0102 C   0  0  0  0  0  0  0  0  0  0  0  0
   -0.5128   -1.4835   -0.0361 C   0  0  0  0  0  0  0  0  0  0  0  0
   -2.7254    4.3427   -0.0988 H   0  0  0  0  0  0  0  0  0  0  0  0
    1.2356    2.0530    0.0258 H   0  0  0  0  0  0  0  0  0  0  0  0
    2.5676   -0.0393    0.0691 H   0  0  0  0  0  0  0  0  0  0  0  0
    1.4747   -2.2660    0.0299 H   0  0  0  0  0  0  0  0  0  0  0  0
   -1.0174   -2.4451   -0.0539 H   0  0  0  0  0  0  0  0  0  0  0  0
  1  4  2  0  0  0  0
  1  8  1  0  0  0  0
  2  1  1  0  0  0  0
  3  2  1  0  0  0  0
  4  5  1  0  0  0  0
  5 10  1  0  0  0  0
  5  6  2  0  0  0  0
  6 11  1  0  0  0  0
  7 12  1  0  0  0  0
  7  6  1  0  0  0  0
  8  7  2  0  0  0  0
 13  8  1  0  0  0  0
M  RAD  4   2   2   3   3   4   2   9   2
M  END
