Coordinates from ORCA-job PhN2+_B3LYPG-6-31G_dp-d09-49-n800
 OpenBabel11261919563D

 13 12  0  0  0  0  0  0  0  0999 V2000
   -1.2741   -0.1970   -0.0597 C   0  0  0  0  0  0  0  0  0  0  0  0
   -2.6481   -0.2318   -0.1052 N   0  0  0  0  0  0  0  0  0  0  0  0
   -3.7617   -0.2614   -0.1422 N   0  0  0  0  0  0  0  0  0  0  0  0
   -0.6258    1.0345   -0.0365 C   0  0  0  0  0  0  0  0  0  0  0  0
    0.7349    1.1401    0.0090 C   0  0  0  0  0  0  0  0  0  0  0  0
    1.4673   -0.0674    0.0318 C   0  0  0  0  0  0  0  0  0  0  0  0
    0.8321   -1.3208    0.0087 C   0  0  0  0  0  0  0  0  0  0  0  0
   -0.5486   -1.4171   -0.0374 C   0  0  0  0  0  0  0  0  0  0  0  0
   -2.4869    3.6158   -0.0941 H   0  0  0  0  0  0  0  0  0  0  0  0
    1.2465    2.0979    0.0273 H   0  0  0  0  0  0  0  0  0  0  0  0
    2.5527   -0.0168    0.0684 H   0  0  0  0  0  0  0  0  0  0  0  0
    1.4281   -2.2268    0.0274 H   0  0  0  0  0  0  0  0  0  0  0  0
   -1.0652   -2.3721   -0.0559 H   0  0  0  0  0  0  0  0  0  0  0  0
  1  8  2  0  0  0  0
  1  4  1  0  0  0  0
  2  1  1  0  0  0  0
  3  2  1  0  0  0  0
  4  5  2  0  0  0  0
  5 10  1  0  0  0  0
  5  6  1  0  0  0  0
  6 11  1  0  0  0  0
  7 12  1  0  0  0  0
  7  6  2  0  0  0  0
  8  7  1  0  0  0  0
 13  8  1  0  0  0  0
M  RAD  4   2   2   3   3   4   2   9   2
M  END
