Coordinates from ORCA-job PhN2+_B3LYPG-6-31G_dp-d09-49-n800
 OpenBabel11261919563D

 13 12  0  0  0  0  0  0  0  0999 V2000
   -1.2526   -0.3927   -0.0602 C   0  0  0  0  0  0  0  0  0  0  0  0
   -2.6262   -0.5069   -0.1062 N   0  0  0  0  0  0  0  0  0  0  0  0
   -3.7372   -0.5938   -0.1431 N   0  0  0  0  0  0  0  0  0  0  0  0
   -0.6880    0.8784   -0.0403 C   0  0  0  0  0  0  0  0  0  0  0  0
    0.6696    1.0466    0.0055 C   0  0  0  0  0  0  0  0  0  0  0  0
    1.4702   -0.1158    0.0319 C   0  0  0  0  0  0  0  0  0  0  0  0
    0.9061   -1.4038    0.0118 C   0  0  0  0  0  0  0  0  0  0  0  0
   -0.4660   -1.5754   -0.0347 C   0  0  0  0  0  0  0  0  0  0  0  0
   -2.7328    5.2482   -0.0960 H   0  0  0  0  0  0  0  0  0  0  0  0
    1.1358    2.0287    0.0219 H   0  0  0  0  0  0  0  0  0  0  0  0
    2.5513   -0.0046    0.0689 H   0  0  0  0  0  0  0  0  0  0  0  0
    1.5521   -2.2749    0.0331 H   0  0  0  0  0  0  0  0  0  0  0  0
   -0.9308   -2.5571   -0.0510 H   0  0  0  0  0  0  0  0  0  0  0  0
  1  4  2  0  0  0  0
  1  8  1  0  0  0  0
  2  1  1  0  0  0  0
  3  2  1  0  0  0  0
  4  5  1  0  0  0  0
  5 10  1  0  0  0  0
  5  6  2  0  0  0  0
  6 11  1  0  0  0  0
  7  6  1  0  0  0  0
  7 12  1  0  0  0  0
  8  7  2  0  0  0  0
 13  8  1  0  0  0  0
M  RAD  4   2   2   3   3   4   2   9   2
M  END
