Coordinates from ORCA-job PhN2+_B3LYPG-6-31G_dp-d09-49-n800
 OpenBabel11261919563D

 13 12  0  0  0  0  0  0  0  0999 V2000
   -1.3002   -0.1627   -0.0605 C   0  0  0  0  0  0  0  0  0  0  0  0
   -2.6722   -0.1976   -0.1059 N   0  0  0  0  0  0  0  0  0  0  0  0
   -3.7858   -0.2277   -0.1425 N   0  0  0  0  0  0  0  0  0  0  0  0
   -0.6525    1.0714   -0.0372 C   0  0  0  0  0  0  0  0  0  0  0  0
    0.7090    1.1790    0.0083 C   0  0  0  0  0  0  0  0  0  0  0  0
    1.4420   -0.0267    0.0310 C   0  0  0  0  0  0  0  0  0  0  0  0
    0.8093   -1.2811    0.0079 C   0  0  0  0  0  0  0  0  0  0  0  0
   -0.5719   -1.3793   -0.0382 C   0  0  0  0  0  0  0  0  0  0  0  0
   -2.1873    3.1597   -0.0851 H   0  0  0  0  0  0  0  0  0  0  0  0
    1.2141    2.1391    0.0265 H   0  0  0  0  0  0  0  0  0  0  0  0
    2.5271    0.0246    0.0676 H   0  0  0  0  0  0  0  0  0  0  0  0
    1.4062   -2.1863    0.0265 H   0  0  0  0  0  0  0  0  0  0  0  0
   -1.0861   -2.3353   -0.0567 H   0  0  0  0  0  0  0  0  0  0  0  0
  1  8  2  0  0  0  0
  1  4  1  0  0  0  0
  2  1  1  0  0  0  0
  3  2  1  0  0  0  0
  4  5  2  0  0  0  0
  5 10  1  0  0  0  0
  5  6  1  0  0  0  0
  6 11  1  0  0  0  0
  7 12  1  0  0  0  0
  7  6  2  0  0  0  0
  8  7  1  0  0  0  0
 13  8  1  0  0  0  0
M  RAD  4   2   2   3   3   4   2   9   2
M  END
