Coordinates from ORCA-job PhN2+_B3LYPG-6-31G_dp-d09-49-n800
 OpenBabel11261919563D

 13 12  0  0  0  0  0  0  0  0999 V2000
   -1.2567   -0.2444   -0.0596 C   0  0  0  0  0  0  0  0  0  0  0  0
   -2.6322   -0.2921   -0.1054 N   0  0  0  0  0  0  0  0  0  0  0  0
   -3.7458   -0.3306   -0.1418 N   0  0  0  0  0  0  0  0  0  0  0  0
   -0.6227    0.9938   -0.0371 C   0  0  0  0  0  0  0  0  0  0  0  0
    0.7387    1.1044    0.0086 C   0  0  0  0  0  0  0  0  0  0  0  0
    1.4811   -0.0970    0.0322 C   0  0  0  0  0  0  0  0  0  0  0  0
    0.8551   -1.3554    0.0097 C   0  0  0  0  0  0  0  0  0  0  0  0
   -0.5243   -1.4612   -0.0366 C   0  0  0  0  0  0  0  0  0  0  0  0
   -2.6782    4.1099   -0.0984 H   0  0  0  0  0  0  0  0  0  0  0  0
    1.2474    2.0645    0.0267 H   0  0  0  0  0  0  0  0  0  0  0  0
    2.5662   -0.0382    0.0691 H   0  0  0  0  0  0  0  0  0  0  0  0
    1.4579   -2.2569    0.0290 H   0  0  0  0  0  0  0  0  0  0  0  0
   -1.0350   -2.4197   -0.0548 H   0  0  0  0  0  0  0  0  0  0  0  0
  1  4  2  0  0  0  0
  1  8  1  0  0  0  0
  2  1  1  0  0  0  0
  3  2  1  0  0  0  0
  4  5  1  0  0  0  0
  5 10  1  0  0  0  0
  5  6  2  0  0  0  0
  6 11  1  0  0  0  0
  7 12  1  0  0  0  0
  7  6  1  0  0  0  0
  8  7  2  0  0  0  0
 13  8  1  0  0  0  0
M  RAD  4   2   2   3   3   4   2   9   2
M  END
