Coordinates from ORCA-job PhN2+_B3LYPG-6-31G_dp-d09-49-n800
 OpenBabel11261919563D

 13 12  0  0  0  0  0  0  0  0999 V2000
   -1.2570   -0.2423   -0.0596 C   0  0  0  0  0  0  0  0  0  0  0  0
   -2.6325   -0.2893   -0.1052 N   0  0  0  0  0  0  0  0  0  0  0  0
   -3.7461   -0.3275   -0.1420 N   0  0  0  0  0  0  0  0  0  0  0  0
   -0.6225    0.9956   -0.0370 C   0  0  0  0  0  0  0  0  0  0  0  0
    0.7388    1.1055    0.0086 C   0  0  0  0  0  0  0  0  0  0  0  0
    1.4807   -0.0961    0.0322 C   0  0  0  0  0  0  0  0  0  0  0  0
    0.8542   -1.3543    0.0097 C   0  0  0  0  0  0  0  0  0  0  0  0
   -0.5252   -1.4594   -0.0366 C   0  0  0  0  0  0  0  0  0  0  0  0
   -2.6730    4.0911   -0.0983 H   0  0  0  0  0  0  0  0  0  0  0  0
    1.2479    2.0654    0.0267 H   0  0  0  0  0  0  0  0  0  0  0  0
    2.5659   -0.0378    0.0690 H   0  0  0  0  0  0  0  0  0  0  0  0
    1.4566   -2.2560    0.0289 H   0  0  0  0  0  0  0  0  0  0  0  0
   -1.0363   -2.4176   -0.0547 H   0  0  0  0  0  0  0  0  0  0  0  0
  1  4  2  0  0  0  0
  1  8  1  0  0  0  0
  2  1  1  0  0  0  0
  3  2  1  0  0  0  0
  4  5  1  0  0  0  0
  5 10  1  0  0  0  0
  5  6  2  0  0  0  0
  6 11  1  0  0  0  0
  7 12  1  0  0  0  0
  7  6  1  0  0  0  0
  8  7  2  0  0  0  0
 13  8  1  0  0  0  0
M  RAD  4   2   2   3   3   4   2   9   2
M  END
