Coordinates from ORCA-job PhN2+_B3LYPG-6-31G_dp-d09-49-n800
 OpenBabel11261919563D

 13 12  0  0  0  0  0  0  0  0999 V2000
   -1.3290   -0.1255   -0.0614 C   0  0  0  0  0  0  0  0  0  0  0  0
   -2.6996   -0.1750   -0.1067 N   0  0  0  0  0  0  0  0  0  0  0  0
   -3.8131   -0.2167   -0.1435 N   0  0  0  0  0  0  0  0  0  0  0  0
   -0.7002    1.1249   -0.0388 C   0  0  0  0  0  0  0  0  0  0  0  0
    0.6690    1.2192    0.0070 C   0  0  0  0  0  0  0  0  0  0  0  0
    1.4087    0.0220    0.0299 C   0  0  0  0  0  0  0  0  0  0  0  0
    0.7838   -1.2358    0.0072 C   0  0  0  0  0  0  0  0  0  0  0  0
   -0.5976   -1.3371   -0.0390 C   0  0  0  0  0  0  0  0  0  0  0  0
   -1.8066    2.6768   -0.0731 H   0  0  0  0  0  0  0  0  0  0  0  0
    1.1672    2.1817    0.0250 H   0  0  0  0  0  0  0  0  0  0  0  0
    2.4931    0.0765    0.0665 H   0  0  0  0  0  0  0  0  0  0  0  0
    1.3832   -2.1392    0.0259 H   0  0  0  0  0  0  0  0  0  0  0  0
   -1.1073   -2.2948   -0.0573 H   0  0  0  0  0  0  0  0  0  0  0  0
  1  8  2  0  0  0  0
  1  4  1  0  0  0  0
  2  1  1  0  0  0  0
  3  2  1  0  0  0  0
  4  5  2  0  0  0  0
  5 10  1  0  0  0  0
  5  6  1  0  0  0  0
  6 11  1  0  0  0  0
  7 12  1  0  0  0  0
  7  6  2  0  0  0  0
  8  7  1  0  0  0  0
 13  8  1  0  0  0  0
M  RAD  4   2   2   3   3   4   2   9   2
M  END
