Coordinates from ORCA-job PhN2+_B3LYPG-6-31G_dp-d09-49-n800
 OpenBabel11261919563D

 13 12  0  0  0  0  0  0  0  0999 V2000
   -1.2673   -0.2109   -0.0595 C   0  0  0  0  0  0  0  0  0  0  0  0
   -2.6419   -0.2484   -0.1050 N   0  0  0  0  0  0  0  0  0  0  0  0
   -3.7556   -0.2799   -0.1423 N   0  0  0  0  0  0  0  0  0  0  0  0
   -0.6219    1.0218   -0.0365 C   0  0  0  0  0  0  0  0  0  0  0  0
    0.7390    1.1279    0.0090 C   0  0  0  0  0  0  0  0  0  0  0  0
    1.4734   -0.0786    0.0319 C   0  0  0  0  0  0  0  0  0  0  0  0
    0.8396   -1.3328    0.0090 C   0  0  0  0  0  0  0  0  0  0  0  0
   -0.5408   -1.4307   -0.0371 C   0  0  0  0  0  0  0  0  0  0  0  0
   -2.5628    3.7738   -0.0960 H   0  0  0  0  0  0  0  0  0  0  0  0
    1.2508    2.0859    0.0273 H   0  0  0  0  0  0  0  0  0  0  0  0
    2.5588   -0.0266    0.0686 H   0  0  0  0  0  0  0  0  0  0  0  0
    1.4368   -2.2380    0.0278 H   0  0  0  0  0  0  0  0  0  0  0  0
   -1.0565   -2.3864   -0.0555 H   0  0  0  0  0  0  0  0  0  0  0  0
  1  8  2  0  0  0  0
  1  4  1  0  0  0  0
  2  1  1  0  0  0  0
  3  2  1  0  0  0  0
  4  5  2  0  0  0  0
  5 10  1  0  0  0  0
  5  6  1  0  0  0  0
  6 11  1  0  0  0  0
  7 12  1  0  0  0  0
  7  6  2  0  0  0  0
  8  7  1  0  0  0  0
 13  8  1  0  0  0  0
M  RAD  4   2   2   3   3   4   2   9   2
M  END
