Coordinates from ORCA-job PhN2+_B3LYPG-6-31G_dp-d09-49-n800
 OpenBabel11261919563D

 13 12  0  0  0  0  0  0  0  0999 V2000
   -1.2505   -0.3626   -0.0601 C   0  0  0  0  0  0  0  0  0  0  0  0
   -2.6251   -0.4612   -0.1060 N   0  0  0  0  0  0  0  0  0  0  0  0
   -3.7369   -0.5362   -0.1429 N   0  0  0  0  0  0  0  0  0  0  0  0
   -0.6705    0.9016   -0.0397 C   0  0  0  0  0  0  0  0  0  0  0  0
    0.6885    1.0550    0.0062 C   0  0  0  0  0  0  0  0  0  0  0  0
    1.4757   -0.1166    0.0321 C   0  0  0  0  0  0  0  0  0  0  0  0
    0.8970   -1.3981    0.0115 C   0  0  0  0  0  0  0  0  0  0  0  0
   -0.4771   -1.5540   -0.0350 C   0  0  0  0  0  0  0  0  0  0  0  0
   -2.7529    5.0417   -0.0972 H   0  0  0  0  0  0  0  0  0  0  0  0
    1.1655    2.0319    0.0229 H   0  0  0  0  0  0  0  0  0  0  0  0
    2.5580   -0.0177    0.0691 H   0  0  0  0  0  0  0  0  0  0  0  0
    1.5329   -2.2765    0.0324 H   0  0  0  0  0  0  0  0  0  0  0  0
   -0.9531   -2.5302   -0.0517 H   0  0  0  0  0  0  0  0  0  0  0  0
  1  4  2  0  0  0  0
  1  8  1  0  0  0  0
  2  1  1  0  0  0  0
  3  2  1  0  0  0  0
  4  5  1  0  0  0  0
  5 10  1  0  0  0  0
  5  6  2  0  0  0  0
  6 11  1  0  0  0  0
  7  6  1  0  0  0  0
  7 12  1  0  0  0  0
  8  7  2  0  0  0  0
 13  8  1  0  0  0  0
M  RAD  4   2   2   3   3   4   2   9   2
M  END
