Coordinates from ORCA-job PhN2+_B3LYPG-6-31G_dp-d09-49-n800
 OpenBabel11261919563D

 13 12  0  0  0  0  0  0  0  0999 V2000
   -1.2512   -0.3763   -0.0602 C   0  0  0  0  0  0  0  0  0  0  0  0
   -2.6254   -0.4819   -0.1059 N   0  0  0  0  0  0  0  0  0  0  0  0
   -3.7369   -0.5622   -0.1426 N   0  0  0  0  0  0  0  0  0  0  0  0
   -0.6781    0.8910   -0.0399 C   0  0  0  0  0  0  0  0  0  0  0  0
    0.6804    1.0509    0.0061 C   0  0  0  0  0  0  0  0  0  0  0  0
    1.4735   -0.1167    0.0320 C   0  0  0  0  0  0  0  0  0  0  0  0
    0.9012   -1.4011    0.0115 C   0  0  0  0  0  0  0  0  0  0  0  0
   -0.4720   -1.5639   -0.0350 C   0  0  0  0  0  0  0  0  0  0  0  0
   -2.7466    5.1385   -0.0971 H   0  0  0  0  0  0  0  0  0  0  0  0
    1.1527    2.0301    0.0227 H   0  0  0  0  0  0  0  0  0  0  0  0
    2.5553   -0.0124    0.0691 H   0  0  0  0  0  0  0  0  0  0  0  0
    1.5416   -2.2763    0.0326 H   0  0  0  0  0  0  0  0  0  0  0  0
   -0.9431   -2.5426   -0.0516 H   0  0  0  0  0  0  0  0  0  0  0  0
  1  4  2  0  0  0  0
  1  8  1  0  0  0  0
  2  1  1  0  0  0  0
  3  2  1  0  0  0  0
  4  5  1  0  0  0  0
  5 10  1  0  0  0  0
  5  6  2  0  0  0  0
  6 11  1  0  0  0  0
  7  6  1  0  0  0  0
  7 12  1  0  0  0  0
  8  7  2  0  0  0  0
 13  8  1  0  0  0  0
M  RAD  4   2   2   3   3   4   2   9   2
M  END
