Coordinates from ORCA-job PhN2+_B3LYPG-6-31G_dp-d09-49-n800
 OpenBabel11261919563D

 13 12  0  0  0  0  0  0  0  0999 V2000
   -1.3030   -0.1595   -0.0606 C   0  0  0  0  0  0  0  0  0  0  0  0
   -2.6748   -0.1952   -0.1059 N   0  0  0  0  0  0  0  0  0  0  0  0
   -3.7883   -0.2259   -0.1426 N   0  0  0  0  0  0  0  0  0  0  0  0
   -0.6562    1.0754   -0.0373 C   0  0  0  0  0  0  0  0  0  0  0  0
    0.7057    1.1828    0.0082 C   0  0  0  0  0  0  0  0  0  0  0  0
    1.4391   -0.0223    0.0309 C   0  0  0  0  0  0  0  0  0  0  0  0
    0.8070   -1.2770    0.0079 C   0  0  0  0  0  0  0  0  0  0  0  0
   -0.5742   -1.3757   -0.0383 C   0  0  0  0  0  0  0  0  0  0  0  0
   -2.1542    3.1162   -0.0841 H   0  0  0  0  0  0  0  0  0  0  0  0
    1.2100    2.1432    0.0264 H   0  0  0  0  0  0  0  0  0  0  0  0
    2.5241    0.0292    0.0675 H   0  0  0  0  0  0  0  0  0  0  0  0
    1.4042   -2.1820    0.0265 H   0  0  0  0  0  0  0  0  0  0  0  0
   -1.0879   -2.3319   -0.0567 H   0  0  0  0  0  0  0  0  0  0  0  0
  1  8  2  0  0  0  0
  1  4  1  0  0  0  0
  2  1  1  0  0  0  0
  3  2  1  0  0  0  0
  4  5  2  0  0  0  0
  5 10  1  0  0  0  0
  5  6  1  0  0  0  0
  6 11  1  0  0  0  0
  7 12  1  0  0  0  0
  7  6  2  0  0  0  0
  8  7  1  0  0  0  0
 13  8  1  0  0  0  0
M  RAD  4   2   2   3   3   4   2   9   2
M  END
