Coordinates from ORCA-job PhN2+_B3LYPG-6-31G_dp-d09-49-n800
 OpenBabel11261919563D

 13 12  0  0  0  0  0  0  0  0999 V2000
   -1.2556   -0.2485   -0.0595 C   0  0  0  0  0  0  0  0  0  0  0  0
   -2.6311   -0.2977   -0.1053 N   0  0  0  0  0  0  0  0  0  0  0  0
   -3.7447   -0.3372   -0.1421 N   0  0  0  0  0  0  0  0  0  0  0  0
   -0.6236    0.9907   -0.0371 C   0  0  0  0  0  0  0  0  0  0  0  0
    0.7379    1.1017    0.0085 C   0  0  0  0  0  0  0  0  0  0  0  0
    1.4815   -0.0988    0.0322 C   0  0  0  0  0  0  0  0  0  0  0  0
    0.8569   -1.3579    0.0098 C   0  0  0  0  0  0  0  0  0  0  0  0
   -0.5224   -1.4648   -0.0365 C   0  0  0  0  0  0  0  0  0  0  0  0
   -2.6884    4.1487   -0.0985 H   0  0  0  0  0  0  0  0  0  0  0  0
    1.2460    2.0621    0.0265 H   0  0  0  0  0  0  0  0  0  0  0  0
    2.5666   -0.0388    0.0690 H   0  0  0  0  0  0  0  0  0  0  0  0
    1.4606   -2.2588    0.0292 H   0  0  0  0  0  0  0  0  0  0  0  0
   -1.0324   -2.4236   -0.0545 H   0  0  0  0  0  0  0  0  0  0  0  0
  1  4  2  0  0  0  0
  1  8  1  0  0  0  0
  2  1  1  0  0  0  0
  3  2  1  0  0  0  0
  4  5  1  0  0  0  0
  5 10  1  0  0  0  0
  5  6  2  0  0  0  0
  6 11  1  0  0  0  0
  7 12  1  0  0  0  0
  7  6  1  0  0  0  0
  8  7  2  0  0  0  0
 13  8  1  0  0  0  0
M  RAD  4   2   2   3   3   4   2   9   2
M  END
