Coordinates from ORCA-job PhN2+_B3LYPG-6-31G_dp-d09-49-n800
 OpenBabel11261919563D

 13 12  0  0  0  0  0  0  0  0999 V2000
   -1.2499   -0.3369   -0.0600 C   0  0  0  0  0  0  0  0  0  0  0  0
   -2.6250   -0.4233   -0.1059 N   0  0  0  0  0  0  0  0  0  0  0  0
   -3.7374   -0.4893   -0.1428 N   0  0  0  0  0  0  0  0  0  0  0  0
   -0.6575    0.9217   -0.0392 C   0  0  0  0  0  0  0  0  0  0  0  0
    0.7026    1.0636    0.0066 C   0  0  0  0  0  0  0  0  0  0  0  0
    1.4790   -0.1154    0.0322 C   0  0  0  0  0  0  0  0  0  0  0  0
    0.8887   -1.3914    0.0113 C   0  0  0  0  0  0  0  0  0  0  0  0
   -0.4868   -1.5348   -0.0352 C   0  0  0  0  0  0  0  0  0  0  0  0
   -2.7573    4.8554   -0.0976 H   0  0  0  0  0  0  0  0  0  0  0  0
    1.1880    2.0362    0.0236 H   0  0  0  0  0  0  0  0  0  0  0  0
    2.5621   -0.0262    0.0692 H   0  0  0  0  0  0  0  0  0  0  0  0
    1.5166   -2.2756    0.0320 H   0  0  0  0  0  0  0  0  0  0  0  0
   -0.9716   -2.5068   -0.0522 H   0  0  0  0  0  0  0  0  0  0  0  0
  1  4  2  0  0  0  0
  1  8  1  0  0  0  0
  2  1  1  0  0  0  0
  3  2  1  0  0  0  0
  4  5  1  0  0  0  0
  5 10  1  0  0  0  0
  5  6  2  0  0  0  0
  6 11  1  0  0  0  0
  7 12  1  0  0  0  0
  7  6  1  0  0  0  0
  8  7  2  0  0  0  0
 13  8  1  0  0  0  0
M  RAD  4   2   2   3   3   4   2   9   2
M  END
