Coordinates from ORCA-job PhN2+_B3LYPG-6-31G_dp-d09-49-n800
 OpenBabel11261919553D

 13 13  0  0  0  0  0  0  0  0999 V2000
   -1.3445   -0.0969   -0.0618 C   0  0  0  0  0  0  0  0  0  0  0  0
   -2.7159   -0.1622   -0.1072 N   0  0  0  0  0  0  0  0  0  0  0  0
   -3.8293   -0.2158   -0.1442 N   0  0  0  0  0  0  0  0  0  0  0  0
   -0.7373    1.1716   -0.0398 C   0  0  0  0  0  0  0  0  0  0  0  0
    0.6412    1.2424    0.0061 C   0  0  0  0  0  0  0  0  0  0  0  0
    1.3874    0.0529    0.0292 C   0  0  0  0  0  0  0  0  0  0  0  0
    0.7673   -1.2064    0.0066 C   0  0  0  0  0  0  0  0  0  0  0  0
   -0.6144   -1.3065   -0.0394 C   0  0  0  0  0  0  0  0  0  0  0  0
   -1.5565    2.3564   -0.0653 H   0  0  0  0  0  0  0  0  0  0  0  0
    1.1386    2.2053    0.0241 H   0  0  0  0  0  0  0  0  0  0  0  0
    2.4713    0.1101    0.0658 H   0  0  0  0  0  0  0  0  0  0  0  0
    1.3670   -2.1096    0.0253 H   0  0  0  0  0  0  0  0  0  0  0  0
   -1.1232   -2.2642   -0.0577 H   0  0  0  0  0  0  0  0  0  0  0  0
  1  4  2  0  0  0  0
  1  8  1  0  0  0  0
  2  1  1  0  0  0  0
  3  2  1  0  0  0  0
  4  5  1  0  0  0  0
  5 10  1  0  0  0  0
  5  6  2  0  0  0  0
  6 11  1  0  0  0  0
  7 12  1  0  0  0  0
  7  6  1  0  0  0  0
  8  7  2  0  0  0  0
  9  4  1  0  0  0  0
 13  8  1  0  0  0  0
M  RAD  2   2   2   3   3
M  END
