Coordinates from ORCA-job PhN2+_B3LYPG-6-31G_dp-d09-49-n800
 OpenBabel11261919563D

 13 12  0  0  0  0  0  0  0  0999 V2000
   -1.3055   -0.1567   -0.0607 C   0  0  0  0  0  0  0  0  0  0  0  0
   -2.6771   -0.1931   -0.1060 N   0  0  0  0  0  0  0  0  0  0  0  0
   -3.7906   -0.2244   -0.1427 N   0  0  0  0  0  0  0  0  0  0  0  0
   -0.6596    1.0791   -0.0374 C   0  0  0  0  0  0  0  0  0  0  0  0
    0.7026    1.1863    0.0081 C   0  0  0  0  0  0  0  0  0  0  0  0
    1.4364   -0.0184    0.0308 C   0  0  0  0  0  0  0  0  0  0  0  0
    0.8050   -1.2733    0.0078 C   0  0  0  0  0  0  0  0  0  0  0  0
   -0.5763   -1.3723   -0.0383 C   0  0  0  0  0  0  0  0  0  0  0  0
   -2.1237    3.0766   -0.0831 H   0  0  0  0  0  0  0  0  0  0  0  0
    1.2062    2.1469    0.0262 H   0  0  0  0  0  0  0  0  0  0  0  0
    2.5214    0.0334    0.0674 H   0  0  0  0  0  0  0  0  0  0  0  0
    1.4024   -2.1782    0.0264 H   0  0  0  0  0  0  0  0  0  0  0  0
   -1.0896   -2.3288   -0.0568 H   0  0  0  0  0  0  0  0  0  0  0  0
  1  8  2  0  0  0  0
  1  4  1  0  0  0  0
  2  1  1  0  0  0  0
  3  2  1  0  0  0  0
  4  5  2  0  0  0  0
  5 10  1  0  0  0  0
  5  6  1  0  0  0  0
  6 11  1  0  0  0  0
  7 12  1  0  0  0  0
  7  6  2  0  0  0  0
  8  7  1  0  0  0  0
 13  8  1  0  0  0  0
M  RAD  4   2   2   3   3   4   2   9   2
M  END
