Coordinates from ORCA-job PhN2+_B3LYPG-6-31G_dp-d09-49-n800
 OpenBabel11261919563D

 13 12  0  0  0  0  0  0  0  0999 V2000
   -1.2569   -0.2429   -0.0596 C   0  0  0  0  0  0  0  0  0  0  0  0
   -2.6323   -0.2902   -0.1053 N   0  0  0  0  0  0  0  0  0  0  0  0
   -3.7459   -0.3285   -0.1420 N   0  0  0  0  0  0  0  0  0  0  0  0
   -0.6227    0.9953   -0.0370 C   0  0  0  0  0  0  0  0  0  0  0  0
    0.7387    1.1051    0.0086 C   0  0  0  0  0  0  0  0  0  0  0  0
    1.4807   -0.0964    0.0322 C   0  0  0  0  0  0  0  0  0  0  0  0
    0.8545   -1.3546    0.0097 C   0  0  0  0  0  0  0  0  0  0  0  0
   -0.5250   -1.4599   -0.0366 C   0  0  0  0  0  0  0  0  0  0  0  0
   -2.6741    4.0962   -0.0983 H   0  0  0  0  0  0  0  0  0  0  0  0
    1.2477    2.0650    0.0267 H   0  0  0  0  0  0  0  0  0  0  0  0
    2.5659   -0.0377    0.0690 H   0  0  0  0  0  0  0  0  0  0  0  0
    1.4570   -2.2563    0.0290 H   0  0  0  0  0  0  0  0  0  0  0  0
   -1.0360   -2.4181   -0.0547 H   0  0  0  0  0  0  0  0  0  0  0  0
  1  4  2  0  0  0  0
  1  8  1  0  0  0  0
  2  1  1  0  0  0  0
  3  2  1  0  0  0  0
  4  5  1  0  0  0  0
  5 10  1  0  0  0  0
  5  6  2  0  0  0  0
  6 11  1  0  0  0  0
  7 12  1  0  0  0  0
  7  6  1  0  0  0  0
  8  7  2  0  0  0  0
 13  8  1  0  0  0  0
M  RAD  4   2   2   3   3   4   2   9   2
M  END
