Coordinates from ORCA-job PhN2+_B3LYPG-6-31G_dp-d09-49-n800
 OpenBabel11261919563D

 13 12  0  0  0  0  0  0  0  0999 V2000
   -1.3023   -0.1603   -0.0606 C   0  0  0  0  0  0  0  0  0  0  0  0
   -2.6741   -0.1958   -0.1059 N   0  0  0  0  0  0  0  0  0  0  0  0
   -3.7877   -0.2263   -0.1426 N   0  0  0  0  0  0  0  0  0  0  0  0
   -0.6553    1.0744   -0.0373 C   0  0  0  0  0  0  0  0  0  0  0  0
    0.7065    1.1819    0.0082 C   0  0  0  0  0  0  0  0  0  0  0  0
    1.4398   -0.0234    0.0309 C   0  0  0  0  0  0  0  0  0  0  0  0
    0.8076   -1.2780    0.0079 C   0  0  0  0  0  0  0  0  0  0  0  0
   -0.5737   -1.3766   -0.0382 C   0  0  0  0  0  0  0  0  0  0  0  0
   -2.1625    3.1271   -0.0843 H   0  0  0  0  0  0  0  0  0  0  0  0
    1.2110    2.1421    0.0264 H   0  0  0  0  0  0  0  0  0  0  0  0
    2.5249    0.0280    0.0675 H   0  0  0  0  0  0  0  0  0  0  0  0
    1.4047   -2.1831    0.0265 H   0  0  0  0  0  0  0  0  0  0  0  0
   -1.0874   -2.3328   -0.0567 H   0  0  0  0  0  0  0  0  0  0  0  0
  1  8  2  0  0  0  0
  1  4  1  0  0  0  0
  2  1  1  0  0  0  0
  3  2  1  0  0  0  0
  4  5  2  0  0  0  0
  5 10  1  0  0  0  0
  5  6  1  0  0  0  0
  6 11  1  0  0  0  0
  7 12  1  0  0  0  0
  7  6  2  0  0  0  0
  8  7  1  0  0  0  0
 13  8  1  0  0  0  0
M  RAD  4   2   2   3   3   4   2   9   2
M  END
