Coordinates from ORCA-job PhN2+_B3LYPG-6-31G_dp-d09-49-n800
 OpenBabel11261919553D

 13 12  0  0  0  0  0  0  0  0999 V2000
   -1.3407   -0.1045   -0.0617 C   0  0  0  0  0  0  0  0  0  0  0  0
   -2.7118   -0.1657   -0.1071 N   0  0  0  0  0  0  0  0  0  0  0  0
   -3.8253   -0.2161   -0.1439 N   0  0  0  0  0  0  0  0  0  0  0  0
   -0.7277    1.1591   -0.0396 C   0  0  0  0  0  0  0  0  0  0  0  0
    0.6483    1.2366    0.0064 C   0  0  0  0  0  0  0  0  0  0  0  0
    1.3927    0.0451    0.0294 C   0  0  0  0  0  0  0  0  0  0  0  0
    0.7714   -1.2139    0.0067 C   0  0  0  0  0  0  0  0  0  0  0  0
   -0.6101   -1.3145   -0.0393 C   0  0  0  0  0  0  0  0  0  0  0  0
   -1.6198    2.4395   -0.0674 H   0  0  0  0  0  0  0  0  0  0  0  0
    1.1456    2.1995    0.0244 H   0  0  0  0  0  0  0  0  0  0  0  0
    2.4767    0.1015    0.0660 H   0  0  0  0  0  0  0  0  0  0  0  0
    1.3712   -2.1171    0.0254 H   0  0  0  0  0  0  0  0  0  0  0  0
   -1.1190   -2.2724   -0.0576 H   0  0  0  0  0  0  0  0  0  0  0  0
  1  4  2  0  0  0  0
  1  8  1  0  0  0  0
  2  1  1  0  0  0  0
  3  2  1  0  0  0  0
  4  5  1  0  0  0  0
  5 10  1  0  0  0  0
  5  6  2  0  0  0  0
  6 11  1  0  0  0  0
  7 12  1  0  0  0  0
  7  6  1  0  0  0  0
  8  7  2  0  0  0  0
 13  8  1  0  0  0  0
M  RAD  4   2   2   3   3   4   2   9   2
M  END
