Coordinates from ORCA-job PhN2+_B3LYPG-6-31G_dp-d09-49-n800
 OpenBabel11261919553D

 13 12  0  0  0  0  0  0  0  0999 V2000
   -1.3393   -0.1074   -0.0617 C   0  0  0  0  0  0  0  0  0  0  0  0
   -2.7103   -0.1669   -0.1070 N   0  0  0  0  0  0  0  0  0  0  0  0
   -3.8238   -0.2161   -0.1438 N   0  0  0  0  0  0  0  0  0  0  0  0
   -0.7240    1.1544   -0.0395 C   0  0  0  0  0  0  0  0  0  0  0  0
    0.6510    1.2345    0.0064 C   0  0  0  0  0  0  0  0  0  0  0  0
    1.3947    0.0421    0.0295 C   0  0  0  0  0  0  0  0  0  0  0  0
    0.7730   -1.2167    0.0068 C   0  0  0  0  0  0  0  0  0  0  0  0
   -0.6085   -1.3175   -0.0393 C   0  0  0  0  0  0  0  0  0  0  0  0
   -1.6438    2.4705   -0.0681 H   0  0  0  0  0  0  0  0  0  0  0  0
    1.1483    2.1973    0.0244 H   0  0  0  0  0  0  0  0  0  0  0  0
    2.4788    0.0983    0.0661 H   0  0  0  0  0  0  0  0  0  0  0  0
    1.3728   -2.1199    0.0255 H   0  0  0  0  0  0  0  0  0  0  0  0
   -1.1174   -2.2754   -0.0576 H   0  0  0  0  0  0  0  0  0  0  0  0
  1  4  2  0  0  0  0
  1  8  1  0  0  0  0
  2  1  1  0  0  0  0
  3  2  1  0  0  0  0
  4  5  1  0  0  0  0
  5 10  1  0  0  0  0
  5  6  2  0  0  0  0
  6 11  1  0  0  0  0
  7 12  1  0  0  0  0
  7  6  1  0  0  0  0
  8  7  2  0  0  0  0
 13  8  1  0  0  0  0
M  RAD  4   2   2   3   3   4   2   9   2
M  END
