Coordinates from ORCA-job PhN2+_B3LYPG-6-31G_dp-d09-49-n800
 OpenBabel11261919563D

 13 12  0  0  0  0  0  0  0  0999 V2000
   -1.2606   -0.2292   -0.0596 C   0  0  0  0  0  0  0  0  0  0  0  0
   -2.6357   -0.2719   -0.1052 N   0  0  0  0  0  0  0  0  0  0  0  0
   -3.7494   -0.3073   -0.1420 N   0  0  0  0  0  0  0  0  0  0  0  0
   -0.6212    1.0064   -0.0368 C   0  0  0  0  0  0  0  0  0  0  0  0
    0.7399    1.1141    0.0088 C   0  0  0  0  0  0  0  0  0  0  0  0
    1.4783   -0.0898    0.0321 C   0  0  0  0  0  0  0  0  0  0  0  0
    0.8484   -1.3461    0.0094 C   0  0  0  0  0  0  0  0  0  0  0  0
   -0.5315   -1.4477   -0.0368 C   0  0  0  0  0  0  0  0  0  0  0  0
   -2.6343    3.9641   -0.0975 H   0  0  0  0  0  0  0  0  0  0  0  0
    1.2505    2.0730    0.0270 H   0  0  0  0  0  0  0  0  0  0  0  0
    2.5636   -0.0343    0.0689 H   0  0  0  0  0  0  0  0  0  0  0  0
    1.4484   -2.2495    0.0285 H   0  0  0  0  0  0  0  0  0  0  0  0
   -1.0449   -2.4046   -0.0551 H   0  0  0  0  0  0  0  0  0  0  0  0
  1  4  2  0  0  0  0
  1  8  1  0  0  0  0
  2  1  1  0  0  0  0
  3  2  1  0  0  0  0
  4  5  1  0  0  0  0
  5 10  1  0  0  0  0
  5  6  2  0  0  0  0
  6 11  1  0  0  0  0
  7 12  1  0  0  0  0
  7  6  1  0  0  0  0
  8  7  2  0  0  0  0
 13  8  1  0  0  0  0
M  RAD  4   2   2   3   3   4   2   9   2
M  END
