Coordinates from ORCA-job PhN2+_B3LYPG-6-31G_dp-d09-49-n800
 OpenBabel11261919563D

 13 12  0  0  0  0  0  0  0  0999 V2000
   -1.3174   -0.1421   -0.0610 C   0  0  0  0  0  0  0  0  0  0  0  0
   -2.6884   -0.1836   -0.1064 N   0  0  0  0  0  0  0  0  0  0  0  0
   -3.8019   -0.2190   -0.1431 N   0  0  0  0  0  0  0  0  0  0  0  0
   -0.6782    1.0995   -0.0380 C   0  0  0  0  0  0  0  0  0  0  0  0
    0.6867    1.2028    0.0076 C   0  0  0  0  0  0  0  0  0  0  0  0
    1.4230    0.0013    0.0304 C   0  0  0  0  0  0  0  0  0  0  0  0
    0.7947   -1.2550    0.0075 C   0  0  0  0  0  0  0  0  0  0  0  0
   -0.5867   -1.3556   -0.0386 C   0  0  0  0  0  0  0  0  0  0  0  0
   -1.9704    2.8815   -0.0783 H   0  0  0  0  0  0  0  0  0  0  0  0
    1.1871    2.1645    0.0256 H   0  0  0  0  0  0  0  0  0  0  0  0
    2.5077    0.0545    0.0670 H   0  0  0  0  0  0  0  0  0  0  0  0
    1.3933   -2.1590    0.0261 H   0  0  0  0  0  0  0  0  0  0  0  0
   -1.0980   -2.3128   -0.0570 H   0  0  0  0  0  0  0  0  0  0  0  0
  1  8  2  0  0  0  0
  1  4  1  0  0  0  0
  2  1  1  0  0  0  0
  3  2  1  0  0  0  0
  4  5  2  0  0  0  0
  5 10  1  0  0  0  0
  5  6  1  0  0  0  0
  6 11  1  0  0  0  0
  7 12  1  0  0  0  0
  7  6  2  0  0  0  0
  8  7  1  0  0  0  0
 13  8  1  0  0  0  0
M  RAD  4   2   2   3   3   4   2   9   2
M  END
