Coordinates from ORCA-job PhN2+_B3LYPG-6-31G_dp-d09-49-n800
 OpenBabel11261919553D

 13 13  0  0  0  0  0  0  0  0999 V2000
   -1.3573   -0.0697   -0.0616 C   0  0  0  0  0  0  0  0  0  0  0  0
   -2.7305   -0.1466   -0.1068 N   0  0  0  0  0  0  0  0  0  0  0  0
   -3.8436   -0.2084   -0.1473 N   0  0  0  0  0  0  0  0  0  0  0  0
   -0.7687    1.2132   -0.0402 C   0  0  0  0  0  0  0  0  0  0  0  0
    0.6167    1.2634    0.0053 C   0  0  0  0  0  0  0  0  0  0  0  0
    1.3698    0.0803    0.0283 C   0  0  0  0  0  0  0  0  0  0  0  0
    0.7529   -1.1793    0.0061 C   0  0  0  0  0  0  0  0  0  0  0  0
   -0.6293   -1.2781   -0.0392 C   0  0  0  0  0  0  0  0  0  0  0  0
   -1.3396    2.0525   -0.0576 H   0  0  0  0  0  0  0  0  0  0  0  0
    1.1135    2.2275    0.0230 H   0  0  0  0  0  0  0  0  0  0  0  0
    2.4533    0.1408    0.0643 H   0  0  0  0  0  0  0  0  0  0  0  0
    1.3524   -2.0828    0.0245 H   0  0  0  0  0  0  0  0  0  0  0  0
   -1.1382   -2.2355   -0.0571 H   0  0  0  0  0  0  0  0  0  0  0  0
  1  4  2  0  0  0  0
  1  8  1  0  0  0  0
  2  1  1  0  0  0  0
  3  2  1  0  0  0  0
  4  5  1  0  0  0  0
  5 10  1  0  0  0  0
  5  6  2  0  0  0  0
  6 11  1  0  0  0  0
  7 12  1  0  0  0  0
  7  6  1  0  0  0  0
  8  7  2  0  0  0  0
  9  4  1  0  0  0  0
 13  8  1  0  0  0  0
M  RAD  2   2   2   3   3
M  END
