Coordinates from ORCA-job PhN2+_B3LYPG-6-31G_dp-d09-49-n800
 OpenBabel11261919553D

 13 13  0  0  0  0  0  0  0  0999 V2000
   -1.3487   -0.0878   -0.0619 C   0  0  0  0  0  0  0  0  0  0  0  0
   -2.7207   -0.1578   -0.1072 N   0  0  0  0  0  0  0  0  0  0  0  0
   -3.8340   -0.2148   -0.1446 N   0  0  0  0  0  0  0  0  0  0  0  0
   -0.7482    1.1862   -0.0401 C   0  0  0  0  0  0  0  0  0  0  0  0
    0.6330    1.2491    0.0058 C   0  0  0  0  0  0  0  0  0  0  0  0
    1.3814    0.0618    0.0290 C   0  0  0  0  0  0  0  0  0  0  0  0
    0.7625   -1.1976    0.0065 C   0  0  0  0  0  0  0  0  0  0  0  0
   -0.6193   -1.2970   -0.0395 C   0  0  0  0  0  0  0  0  0  0  0  0
   -1.4839    2.2583   -0.0629 H   0  0  0  0  0  0  0  0  0  0  0  0
    1.1305    2.2122    0.0238 H   0  0  0  0  0  0  0  0  0  0  0  0
    2.4651    0.1201    0.0655 H   0  0  0  0  0  0  0  0  0  0  0  0
    1.3621   -2.1009    0.0251 H   0  0  0  0  0  0  0  0  0  0  0  0
   -1.1283   -2.2546   -0.0577 H   0  0  0  0  0  0  0  0  0  0  0  0
  1  4  2  0  0  0  0
  1  8  1  0  0  0  0
  2  1  1  0  0  0  0
  3  2  1  0  0  0  0
  4  5  1  0  0  0  0
  5 10  1  0  0  0  0
  5  6  2  0  0  0  0
  6 11  1  0  0  0  0
  7 12  1  0  0  0  0
  7  6  1  0  0  0  0
  8  7  2  0  0  0  0
  9  4  1  0  0  0  0
 13  8  1  0  0  0  0
M  RAD  2   2   2   3   3
M  END
