Coordinates from ORCA-job PhN2+_B3LYPG-6-31G_dp-d09-49-n800
 OpenBabel11261919563D

 13 12  0  0  0  0  0  0  0  0999 V2000
   -1.2498   -0.3168   -0.0599 C   0  0  0  0  0  0  0  0  0  0  0  0
   -2.6253   -0.3939   -0.1058 N   0  0  0  0  0  0  0  0  0  0  0  0
   -3.7381   -0.4531   -0.1428 N   0  0  0  0  0  0  0  0  0  0  0  0
   -0.6477    0.9370   -0.0389 C   0  0  0  0  0  0  0  0  0  0  0  0
    0.7128    1.0707    0.0070 C   0  0  0  0  0  0  0  0  0  0  0  0
    1.4811   -0.1137    0.0322 C   0  0  0  0  0  0  0  0  0  0  0  0
    0.8820   -1.3856    0.0110 C   0  0  0  0  0  0  0  0  0  0  0  0
   -0.4945   -1.5197   -0.0354 C   0  0  0  0  0  0  0  0  0  0  0  0
   -2.7563    4.7061   -0.0979 H   0  0  0  0  0  0  0  0  0  0  0  0
    1.2044    2.0402    0.0242 H   0  0  0  0  0  0  0  0  0  0  0  0
    2.5648   -0.0319    0.0692 H   0  0  0  0  0  0  0  0  0  0  0  0
    1.5038   -2.2740    0.0315 H   0  0  0  0  0  0  0  0  0  0  0  0
   -0.9858   -2.4883   -0.0526 H   0  0  0  0  0  0  0  0  0  0  0  0
  1  4  2  0  0  0  0
  1  8  1  0  0  0  0
  2  1  1  0  0  0  0
  3  2  1  0  0  0  0
  4  5  1  0  0  0  0
  5 10  1  0  0  0  0
  5  6  2  0  0  0  0
  6 11  1  0  0  0  0
  7 12  1  0  0  0  0
  7  6  1  0  0  0  0
  8  7  2  0  0  0  0
 13  8  1  0  0  0  0
M  RAD  4   2   2   3   3   4   2   9   2
M  END
