Coordinates from ORCA-job PhN2+_B3LYPG-6-31G_dp-d09-49-n800
 OpenBabel11261919563D

 13 12  0  0  0  0  0  0  0  0999 V2000
   -1.2518   -0.2763   -0.0595 C   0  0  0  0  0  0  0  0  0  0  0  0
   -2.6276   -0.3357   -0.1056 N   0  0  0  0  0  0  0  0  0  0  0  0
   -3.7409   -0.3823   -0.1427 N   0  0  0  0  0  0  0  0  0  0  0  0
   -0.6308    0.9681   -0.0376 C   0  0  0  0  0  0  0  0  0  0  0  0
    0.7302    1.0876    0.0080 C   0  0  0  0  0  0  0  0  0  0  0  0
    1.4831   -0.1071    0.0322 C   0  0  0  0  0  0  0  0  0  0  0  0
    0.8677   -1.3710    0.0104 C   0  0  0  0  0  0  0  0  0  0  0  0
   -0.5106   -1.4879   -0.0359 C   0  0  0  0  0  0  0  0  0  0  0  0
   -2.7323    4.3873   -0.0987 H   0  0  0  0  0  0  0  0  0  0  0  0
    1.2325    2.0513    0.0256 H   0  0  0  0  0  0  0  0  0  0  0  0
    2.5678   -0.0392    0.0690 H   0  0  0  0  0  0  0  0  0  0  0  0
    1.4781   -2.2673    0.0301 H   0  0  0  0  0  0  0  0  0  0  0  0
   -1.0137   -2.4504   -0.0536 H   0  0  0  0  0  0  0  0  0  0  0  0
  1  4  2  0  0  0  0
  1  8  1  0  0  0  0
  2  1  1  0  0  0  0
  3  2  1  0  0  0  0
  4  5  1  0  0  0  0
  5 10  1  0  0  0  0
  5  6  2  0  0  0  0
  6 11  1  0  0  0  0
  7 12  1  0  0  0  0
  7  6  1  0  0  0  0
  8  7  2  0  0  0  0
 13  8  1  0  0  0  0
M  RAD  4   2   2   3   3   4   2   9   2
M  END
