Coordinates from ORCA-job PhN2+_B3LYPG-6-31G_dp-d09-49-n800
 OpenBabel11261919563D

 13 12  0  0  0  0  0  0  0  0999 V2000
   -1.3265   -0.1292   -0.0613 C   0  0  0  0  0  0  0  0  0  0  0  0
   -2.6972   -0.1768   -0.1067 N   0  0  0  0  0  0  0  0  0  0  0  0
   -3.8107   -0.2170   -0.1434 N   0  0  0  0  0  0  0  0  0  0  0  0
   -0.6952    1.1190   -0.0386 C   0  0  0  0  0  0  0  0  0  0  0  0
    0.6729    1.2157    0.0071 C   0  0  0  0  0  0  0  0  0  0  0  0
    1.4118    0.0175    0.0300 C   0  0  0  0  0  0  0  0  0  0  0  0
    0.7862   -1.2400    0.0072 C   0  0  0  0  0  0  0  0  0  0  0  0
   -0.5952   -1.3412   -0.0389 C   0  0  0  0  0  0  0  0  0  0  0  0
   -1.8425    2.7217   -0.0742 H   0  0  0  0  0  0  0  0  0  0  0  0
    1.1715    2.1781    0.0251 H   0  0  0  0  0  0  0  0  0  0  0  0
    2.4963    0.0717    0.0666 H   0  0  0  0  0  0  0  0  0  0  0  0
    1.3855   -2.1435    0.0259 H   0  0  0  0  0  0  0  0  0  0  0  0
   -1.1052   -2.2989   -0.0572 H   0  0  0  0  0  0  0  0  0  0  0  0
  1  8  2  0  0  0  0
  1  4  1  0  0  0  0
  2  1  1  0  0  0  0
  3  2  1  0  0  0  0
  4  5  2  0  0  0  0
  5 10  1  0  0  0  0
  5  6  1  0  0  0  0
  6 11  1  0  0  0  0
  7 12  1  0  0  0  0
  7  6  2  0  0  0  0
  8  7  1  0  0  0  0
 13  8  1  0  0  0  0
M  RAD  4   2   2   3   3   4   2   9   2
M  END
