Coordinates from ORCA-job PhN2+_B3LYPG-6-31G_dp-d09-49-n800
 OpenBabel11261919563D

 13 12  0  0  0  0  0  0  0  0999 V2000
   -1.2781   -0.1908   -0.0598 C   0  0  0  0  0  0  0  0  0  0  0  0
   -2.6518   -0.2248   -0.1053 N   0  0  0  0  0  0  0  0  0  0  0  0
   -3.7655   -0.2540   -0.1421 N   0  0  0  0  0  0  0  0  0  0  0  0
   -0.6288    1.0403   -0.0365 C   0  0  0  0  0  0  0  0  0  0  0  0
    0.7318    1.1465    0.0089 C   0  0  0  0  0  0  0  0  0  0  0  0
    1.4638   -0.0611    0.0317 C   0  0  0  0  0  0  0  0  0  0  0  0
    0.8283   -1.3144    0.0086 C   0  0  0  0  0  0  0  0  0  0  0  0
   -0.5525   -1.4106   -0.0376 C   0  0  0  0  0  0  0  0  0  0  0  0
   -2.4428    3.5384   -0.0930 H   0  0  0  0  0  0  0  0  0  0  0  0
    1.2427    2.1046    0.0273 H   0  0  0  0  0  0  0  0  0  0  0  0
    2.5492   -0.0109    0.0684 H   0  0  0  0  0  0  0  0  0  0  0  0
    1.4241   -2.2205    0.0272 H   0  0  0  0  0  0  0  0  0  0  0  0
   -1.0690   -2.3656   -0.0561 H   0  0  0  0  0  0  0  0  0  0  0  0
  1  8  2  0  0  0  0
  1  4  1  0  0  0  0
  2  1  1  0  0  0  0
  3  2  1  0  0  0  0
  4  5  2  0  0  0  0
  5 10  1  0  0  0  0
  5  6  1  0  0  0  0
  6 11  1  0  0  0  0
  7 12  1  0  0  0  0
  7  6  2  0  0  0  0
  8  7  1  0  0  0  0
 13  8  1  0  0  0  0
M  RAD  4   2   2   3   3   4   2   9   2
M  END
