Coordinates from ORCA-job PhN2+_B3LYPG-6-31G_dp-d09-49-n800
 OpenBabel11261919563D

 13 12  0  0  0  0  0  0  0  0999 V2000
   -1.2670   -0.2112   -0.0596 C   0  0  0  0  0  0  0  0  0  0  0  0
   -2.6416   -0.2489   -0.1052 N   0  0  0  0  0  0  0  0  0  0  0  0
   -3.7553   -0.2806   -0.1420 N   0  0  0  0  0  0  0  0  0  0  0  0
   -0.6219    1.0216   -0.0365 C   0  0  0  0  0  0  0  0  0  0  0  0
    0.7390    1.1275    0.0090 C   0  0  0  0  0  0  0  0  0  0  0  0
    1.4734   -0.0789    0.0320 C   0  0  0  0  0  0  0  0  0  0  0  0
    0.8398   -1.3332    0.0090 C   0  0  0  0  0  0  0  0  0  0  0  0
   -0.5406   -1.4311   -0.0371 C   0  0  0  0  0  0  0  0  0  0  0  0
   -2.5647    3.7784   -0.0961 H   0  0  0  0  0  0  0  0  0  0  0  0
    1.2508    2.0854    0.0273 H   0  0  0  0  0  0  0  0  0  0  0  0
    2.5588   -0.0268    0.0687 H   0  0  0  0  0  0  0  0  0  0  0  0
    1.4371   -2.2384    0.0279 H   0  0  0  0  0  0  0  0  0  0  0  0
   -1.0563   -2.3867   -0.0556 H   0  0  0  0  0  0  0  0  0  0  0  0
  1  8  2  0  0  0  0
  1  4  1  0  0  0  0
  2  1  1  0  0  0  0
  3  2  1  0  0  0  0
  4  5  2  0  0  0  0
  5 10  1  0  0  0  0
  5  6  1  0  0  0  0
  6 11  1  0  0  0  0
  7 12  1  0  0  0  0
  7  6  2  0  0  0  0
  8  7  1  0  0  0  0
 13  8  1  0  0  0  0
M  RAD  4   2   2   3   3   4   2   9   2
M  END
