Coordinates from ORCA-job PhN2+_B3LYPG-6-31G_dp-d09-49-n800
 OpenBabel11261919563D

 13 12  0  0  0  0  0  0  0  0999 V2000
   -1.2513   -0.3772   -0.0601 C   0  0  0  0  0  0  0  0  0  0  0  0
   -2.6254   -0.4834   -0.1060 N   0  0  0  0  0  0  0  0  0  0  0  0
   -3.7368   -0.5644   -0.1428 N   0  0  0  0  0  0  0  0  0  0  0  0
   -0.6789    0.8905   -0.0398 C   0  0  0  0  0  0  0  0  0  0  0  0
    0.6796    1.0506    0.0061 C   0  0  0  0  0  0  0  0  0  0  0  0
    1.4732   -0.1166    0.0320 C   0  0  0  0  0  0  0  0  0  0  0  0
    0.9016   -1.4012    0.0116 C   0  0  0  0  0  0  0  0  0  0  0  0
   -0.4717   -1.5645   -0.0349 C   0  0  0  0  0  0  0  0  0  0  0  0
   -2.7452    5.1446   -0.0970 H   0  0  0  0  0  0  0  0  0  0  0  0
    1.1516    2.0299    0.0226 H   0  0  0  0  0  0  0  0  0  0  0  0
    2.5550   -0.0117    0.0690 H   0  0  0  0  0  0  0  0  0  0  0  0
    1.5423   -2.2762    0.0326 H   0  0  0  0  0  0  0  0  0  0  0  0
   -0.9425   -2.5433   -0.0515 H   0  0  0  0  0  0  0  0  0  0  0  0
  1  4  2  0  0  0  0
  1  8  1  0  0  0  0
  2  1  1  0  0  0  0
  3  2  1  0  0  0  0
  4  5  1  0  0  0  0
  5 10  1  0  0  0  0
  5  6  2  0  0  0  0
  6 11  1  0  0  0  0
  7  6  1  0  0  0  0
  7 12  1  0  0  0  0
  8  7  2  0  0  0  0
 13  8  1  0  0  0  0
M  RAD  4   2   2   3   3   4   2   9   2
M  END
