Coordinates from ORCA-job PhN2+_B3LYPG-6-31G_dp-d09-49-n800
 OpenBabel11261919563D

 13 12  0  0  0  0  0  0  0  0999 V2000
   -1.2499   -0.3112   -0.0599 C   0  0  0  0  0  0  0  0  0  0  0  0
   -2.6254   -0.3857   -0.1058 N   0  0  0  0  0  0  0  0  0  0  0  0
   -3.7383   -0.4430   -0.1428 N   0  0  0  0  0  0  0  0  0  0  0  0
   -0.6451    0.9414   -0.0387 C   0  0  0  0  0  0  0  0  0  0  0  0
    0.7157    1.0728    0.0071 C   0  0  0  0  0  0  0  0  0  0  0  0
    1.4816   -0.1131    0.0322 C   0  0  0  0  0  0  0  0  0  0  0  0
    0.8801   -1.3838    0.0110 C   0  0  0  0  0  0  0  0  0  0  0  0
   -0.4967   -1.5154   -0.0355 C   0  0  0  0  0  0  0  0  0  0  0  0
   -2.7553    4.6637   -0.0981 H   0  0  0  0  0  0  0  0  0  0  0  0
    1.2089    2.0414    0.0244 H   0  0  0  0  0  0  0  0  0  0  0  0
    2.5655   -0.0334    0.0692 H   0  0  0  0  0  0  0  0  0  0  0  0
    1.5002   -2.2735    0.0313 H   0  0  0  0  0  0  0  0  0  0  0  0
   -0.9897   -2.4831   -0.0528 H   0  0  0  0  0  0  0  0  0  0  0  0
  1  4  2  0  0  0  0
  1  8  1  0  0  0  0
  2  1  1  0  0  0  0
  3  2  1  0  0  0  0
  4  5  1  0  0  0  0
  5 10  1  0  0  0  0
  5  6  2  0  0  0  0
  6 11  1  0  0  0  0
  7 12  1  0  0  0  0
  7  6  1  0  0  0  0
  8  7  2  0  0  0  0
 13  8  1  0  0  0  0
M  RAD  4   2   2   3   3   4   2   9   2
M  END
