Coordinates from ORCA-job PhN2+_B3LYPG-6-31G_dp-d09-49-n800
 OpenBabel11261919563D

 13 12  0  0  0  0  0  0  0  0999 V2000
   -1.3357   -0.1142   -0.0616 C   0  0  0  0  0  0  0  0  0  0  0  0
   -2.7065   -0.1699   -0.1069 N   0  0  0  0  0  0  0  0  0  0  0  0
   -3.8200   -0.2162   -0.1437 N   0  0  0  0  0  0  0  0  0  0  0  0
   -0.7152    1.1432   -0.0392 C   0  0  0  0  0  0  0  0  0  0  0  0
    0.6576    1.2290    0.0066 C   0  0  0  0  0  0  0  0  0  0  0  0
    1.3997    0.0348    0.0296 C   0  0  0  0  0  0  0  0  0  0  0  0
    0.7769   -1.2237    0.0069 C   0  0  0  0  0  0  0  0  0  0  0  0
   -0.6045   -1.3248   -0.0392 C   0  0  0  0  0  0  0  0  0  0  0  0
   -1.7029    2.5462   -0.0699 H   0  0  0  0  0  0  0  0  0  0  0  0
    1.1550    2.1917    0.0246 H   0  0  0  0  0  0  0  0  0  0  0  0
    2.4839    0.0904    0.0662 H   0  0  0  0  0  0  0  0  0  0  0  0
    1.3767   -2.1269    0.0256 H   0  0  0  0  0  0  0  0  0  0  0  0
   -1.1136   -2.2826   -0.0575 H   0  0  0  0  0  0  0  0  0  0  0  0
  1  4  2  0  0  0  0
  1  8  1  0  0  0  0
  2  1  1  0  0  0  0
  3  2  1  0  0  0  0
  4  5  1  0  0  0  0
  5 10  1  0  0  0  0
  5  6  2  0  0  0  0
  6 11  1  0  0  0  0
  7 12  1  0  0  0  0
  7  6  1  0  0  0  0
  8  7  2  0  0  0  0
 13  8  1  0  0  0  0
M  RAD  4   2   2   3   3   4   2   9   2
M  END
