Coordinates from ORCA-job PhN2+_B3LYPG-6-31G_dp-d09-49-n800
 OpenBabel11261919563D

 13 12  0  0  0  0  0  0  0  0999 V2000
   -1.2717   -0.2016   -0.0597 C   0  0  0  0  0  0  0  0  0  0  0  0
   -2.6459   -0.2371   -0.1053 N   0  0  0  0  0  0  0  0  0  0  0  0
   -3.7596   -0.2672   -0.1419 N   0  0  0  0  0  0  0  0  0  0  0  0
   -0.6239    1.0300   -0.0365 C   0  0  0  0  0  0  0  0  0  0  0  0
    0.7368    1.1359    0.0090 C   0  0  0  0  0  0  0  0  0  0  0  0
    1.4697   -0.0714    0.0319 C   0  0  0  0  0  0  0  0  0  0  0  0
    0.8347   -1.3250    0.0088 C   0  0  0  0  0  0  0  0  0  0  0  0
   -0.5459   -1.4217   -0.0373 C   0  0  0  0  0  0  0  0  0  0  0  0
   -2.5149    3.6700   -0.0949 H   0  0  0  0  0  0  0  0  0  0  0  0
    1.2485    2.0937    0.0274 H   0  0  0  0  0  0  0  0  0  0  0  0
    2.5551   -0.0206    0.0686 H   0  0  0  0  0  0  0  0  0  0  0  0
    1.4310   -2.2308    0.0276 H   0  0  0  0  0  0  0  0  0  0  0  0
   -1.0623   -2.3770   -0.0559 H   0  0  0  0  0  0  0  0  0  0  0  0
  1  8  2  0  0  0  0
  1  4  1  0  0  0  0
  2  1  1  0  0  0  0
  3  2  1  0  0  0  0
  4  5  2  0  0  0  0
  5 10  1  0  0  0  0
  5  6  1  0  0  0  0
  6 11  1  0  0  0  0
  7 12  1  0  0  0  0
  7  6  2  0  0  0  0
  8  7  1  0  0  0  0
 13  8  1  0  0  0  0
M  RAD  4   2   2   3   3   4   2   9   2
M  END
