Coordinates from ORCA-job PhN2+_B3LYPG-6-31G_dp-d09-49-n800
 OpenBabel11261919563D

 13 12  0  0  0  0  0  0  0  0999 V2000
   -1.2502   -0.3509   -0.0601 C   0  0  0  0  0  0  0  0  0  0  0  0
   -2.6250   -0.4439   -0.1061 N   0  0  0  0  0  0  0  0  0  0  0  0
   -3.7371   -0.5148   -0.1428 N   0  0  0  0  0  0  0  0  0  0  0  0
   -0.6646    0.9109   -0.0396 C   0  0  0  0  0  0  0  0  0  0  0  0
    0.6950    1.0589    0.0064 C   0  0  0  0  0  0  0  0  0  0  0  0
    1.4772   -0.1161    0.0321 C   0  0  0  0  0  0  0  0  0  0  0  0
    0.8932   -1.3951    0.0114 C   0  0  0  0  0  0  0  0  0  0  0  0
   -0.4815   -1.5452   -0.0351 C   0  0  0  0  0  0  0  0  0  0  0  0
   -2.7552    4.9569   -0.0973 H   0  0  0  0  0  0  0  0  0  0  0  0
    1.1759    2.0338    0.0232 H   0  0  0  0  0  0  0  0  0  0  0  0
    2.5599   -0.0216    0.0692 H   0  0  0  0  0  0  0  0  0  0  0  0
    1.5255   -2.2762    0.0323 H   0  0  0  0  0  0  0  0  0  0  0  0
   -0.9616   -2.5195   -0.0519 H   0  0  0  0  0  0  0  0  0  0  0  0
  1  4  2  0  0  0  0
  1  8  1  0  0  0  0
  2  1  1  0  0  0  0
  3  2  1  0  0  0  0
  4  5  1  0  0  0  0
  5 10  1  0  0  0  0
  5  6  2  0  0  0  0
  6 11  1  0  0  0  0
  7  6  1  0  0  0  0
  7 12  1  0  0  0  0
  8  7  2  0  0  0  0
 13  8  1  0  0  0  0
M  RAD  4   2   2   3   3   4   2   9   2
M  END
