Coordinates from ORCA-job PhN2+_B3LYPG-6-31G_dp-d09-49-n800
 OpenBabel11261919563D

 13 12  0  0  0  0  0  0  0  0999 V2000
   -1.2824   -0.1833   -0.0600 C   0  0  0  0  0  0  0  0  0  0  0  0
   -2.6557   -0.2163   -0.1055 N   0  0  0  0  0  0  0  0  0  0  0  0
   -3.7693   -0.2447   -0.1420 N   0  0  0  0  0  0  0  0  0  0  0  0
   -0.6321    1.0477   -0.0366 C   0  0  0  0  0  0  0  0  0  0  0  0
    0.7285    1.1538    0.0089 C   0  0  0  0  0  0  0  0  0  0  0  0
    1.4597   -0.0541    0.0316 C   0  0  0  0  0  0  0  0  0  0  0  0
    0.8240   -1.3072    0.0084 C   0  0  0  0  0  0  0  0  0  0  0  0
   -0.5570   -1.4029   -0.0377 C   0  0  0  0  0  0  0  0  0  0  0  0
   -2.3937    3.4477   -0.0916 H   0  0  0  0  0  0  0  0  0  0  0  0
    1.2387    2.1120    0.0273 H   0  0  0  0  0  0  0  0  0  0  0  0
    2.5451   -0.0043    0.0683 H   0  0  0  0  0  0  0  0  0  0  0  0
    1.4194   -2.2135    0.0270 H   0  0  0  0  0  0  0  0  0  0  0  0
   -1.0738   -2.3578   -0.0563 H   0  0  0  0  0  0  0  0  0  0  0  0
  1  8  2  0  0  0  0
  1  4  1  0  0  0  0
  2  1  1  0  0  0  0
  3  2  1  0  0  0  0
  4  5  2  0  0  0  0
  5 10  1  0  0  0  0
  5  6  1  0  0  0  0
  6 11  1  0  0  0  0
  7 12  1  0  0  0  0
  7  6  2  0  0  0  0
  8  7  1  0  0  0  0
 13  8  1  0  0  0  0
M  RAD  4   2   2   3   3   4   2   9   2
M  END
