Coordinates from ORCA-job PhN2+_B3LYPG-6-31G_dp-d09-49-n800
 OpenBabel11261919563D

 13 12  0  0  0  0  0  0  0  0999 V2000
   -1.2576   -0.2398   -0.0595 C   0  0  0  0  0  0  0  0  0  0  0  0
   -2.6330   -0.2861   -0.1052 N   0  0  0  0  0  0  0  0  0  0  0  0
   -3.7466   -0.3237   -0.1422 N   0  0  0  0  0  0  0  0  0  0  0  0
   -0.6223    0.9978   -0.0369 C   0  0  0  0  0  0  0  0  0  0  0  0
    0.7391    1.1070    0.0087 C   0  0  0  0  0  0  0  0  0  0  0  0
    1.4803   -0.0950    0.0322 C   0  0  0  0  0  0  0  0  0  0  0  0
    0.8532   -1.3529    0.0096 C   0  0  0  0  0  0  0  0  0  0  0  0
   -0.5264   -1.4572   -0.0366 C   0  0  0  0  0  0  0  0  0  0  0  0
   -2.6663    4.0675   -0.0982 H   0  0  0  0  0  0  0  0  0  0  0  0
    1.2485    2.0667    0.0267 H   0  0  0  0  0  0  0  0  0  0  0  0
    2.5655   -0.0371    0.0690 H   0  0  0  0  0  0  0  0  0  0  0  0
    1.4551   -2.2549    0.0288 H   0  0  0  0  0  0  0  0  0  0  0  0
   -1.0380   -2.4151   -0.0548 H   0  0  0  0  0  0  0  0  0  0  0  0
  1  4  2  0  0  0  0
  1  8  1  0  0  0  0
  2  1  1  0  0  0  0
  3  2  1  0  0  0  0
  4  5  1  0  0  0  0
  5 10  1  0  0  0  0
  5  6  2  0  0  0  0
  6 11  1  0  0  0  0
  7 12  1  0  0  0  0
  7  6  1  0  0  0  0
  8  7  2  0  0  0  0
 13  8  1  0  0  0  0
M  RAD  4   2   2   3   3   4   2   9   2
M  END
