Coordinates from ORCA-job PhN2+_B3LYPG-6-31G_dp-d09-49-n800
 OpenBabel11261919563D

 13 12  0  0  0  0  0  0  0  0999 V2000
   -1.2624   -0.2232   -0.0596 C   0  0  0  0  0  0  0  0  0  0  0  0
   -2.6375   -0.2641   -0.1053 N   0  0  0  0  0  0  0  0  0  0  0  0
   -3.7511   -0.2981   -0.1418 N   0  0  0  0  0  0  0  0  0  0  0  0
   -0.6210    1.0111   -0.0367 C   0  0  0  0  0  0  0  0  0  0  0  0
    0.7398    1.1182    0.0089 C   0  0  0  0  0  0  0  0  0  0  0  0
    1.4769   -0.0864    0.0321 C   0  0  0  0  0  0  0  0  0  0  0  0
    0.8457   -1.3421    0.0093 C   0  0  0  0  0  0  0  0  0  0  0  0
   -0.5344   -1.4423   -0.0369 C   0  0  0  0  0  0  0  0  0  0  0  0
   -2.6136    3.9040   -0.0972 H   0  0  0  0  0  0  0  0  0  0  0  0
    1.2509    2.0768    0.0271 H   0  0  0  0  0  0  0  0  0  0  0  0
    2.5622   -0.0321    0.0689 H   0  0  0  0  0  0  0  0  0  0  0  0
    1.4447   -2.2461    0.0283 H   0  0  0  0  0  0  0  0  0  0  0  0
   -1.0488   -2.3987   -0.0553 H   0  0  0  0  0  0  0  0  0  0  0  0
  1  8  2  0  0  0  0
  1  4  1  0  0  0  0
  2  1  1  0  0  0  0
  3  2  1  0  0  0  0
  4  5  2  0  0  0  0
  5 10  1  0  0  0  0
  5  6  1  0  0  0  0
  6 11  1  0  0  0  0
  7 12  1  0  0  0  0
  7  6  2  0  0  0  0
  8  7  1  0  0  0  0
 13  8  1  0  0  0  0
M  RAD  4   2   2   3   3   4   2   9   2
M  END
