Coordinates from ORCA-job PhN2+_B3LYPG-6-31G_dp-d09-49-n800
 OpenBabel11261919563D

 13 12  0  0  0  0  0  0  0  0999 V2000
   -1.3186   -0.1404   -0.0611 C   0  0  0  0  0  0  0  0  0  0  0  0
   -2.6895   -0.1826   -0.1064 N   0  0  0  0  0  0  0  0  0  0  0  0
   -3.8031   -0.2187   -0.1431 N   0  0  0  0  0  0  0  0  0  0  0  0
   -0.6803    1.1019   -0.0381 C   0  0  0  0  0  0  0  0  0  0  0  0
    0.6849    1.2045    0.0075 C   0  0  0  0  0  0  0  0  0  0  0  0
    1.4215    0.0035    0.0303 C   0  0  0  0  0  0  0  0  0  0  0  0
    0.7935   -1.2530    0.0074 C   0  0  0  0  0  0  0  0  0  0  0  0
   -0.5878   -1.3537   -0.0387 C   0  0  0  0  0  0  0  0  0  0  0  0
   -1.9537    2.8605   -0.0777 H   0  0  0  0  0  0  0  0  0  0  0  0
    1.1850    2.1664    0.0255 H   0  0  0  0  0  0  0  0  0  0  0  0
    2.5062    0.0568    0.0670 H   0  0  0  0  0  0  0  0  0  0  0  0
    1.3922   -2.1570    0.0261 H   0  0  0  0  0  0  0  0  0  0  0  0
   -1.0989   -2.3110   -0.0571 H   0  0  0  0  0  0  0  0  0  0  0  0
  1  8  2  0  0  0  0
  1  4  1  0  0  0  0
  2  1  1  0  0  0  0
  3  2  1  0  0  0  0
  4  5  2  0  0  0  0
  5 10  1  0  0  0  0
  5  6  1  0  0  0  0
  6 11  1  0  0  0  0
  7 12  1  0  0  0  0
  7  6  2  0  0  0  0
  8  7  1  0  0  0  0
 13  8  1  0  0  0  0
M  RAD  4   2   2   3   3   4   2   9   2
M  END
