Coordinates from ORCA-job PhN2+_B3LYPG-6-31G_dp-d09-49-n800
 OpenBabel11261919563D

 13 12  0  0  0  0  0  0  0  0999 V2000
   -1.2842   -0.1808   -0.0600 C   0  0  0  0  0  0  0  0  0  0  0  0
   -2.6574   -0.2139   -0.1054 N   0  0  0  0  0  0  0  0  0  0  0  0
   -3.7710   -0.2425   -0.1422 N   0  0  0  0  0  0  0  0  0  0  0  0
   -0.6337    1.0501   -0.0366 C   0  0  0  0  0  0  0  0  0  0  0  0
    0.7269    1.1565    0.0088 C   0  0  0  0  0  0  0  0  0  0  0  0
    1.4581   -0.0513    0.0315 C   0  0  0  0  0  0  0  0  0  0  0  0
    0.8224   -1.3044    0.0084 C   0  0  0  0  0  0  0  0  0  0  0  0
   -0.5586   -1.4002   -0.0378 C   0  0  0  0  0  0  0  0  0  0  0  0
   -2.3736    3.4163   -0.0909 H   0  0  0  0  0  0  0  0  0  0  0  0
    1.2366    2.1148    0.0272 H   0  0  0  0  0  0  0  0  0  0  0  0
    2.5435   -0.0016    0.0682 H   0  0  0  0  0  0  0  0  0  0  0  0
    1.4178   -2.2107    0.0269 H   0  0  0  0  0  0  0  0  0  0  0  0
   -1.0752   -2.3551   -0.0563 H   0  0  0  0  0  0  0  0  0  0  0  0
  1  8  2  0  0  0  0
  1  4  1  0  0  0  0
  2  1  1  0  0  0  0
  3  2  1  0  0  0  0
  4  5  2  0  0  0  0
  5 10  1  0  0  0  0
  5  6  1  0  0  0  0
  6 11  1  0  0  0  0
  7 12  1  0  0  0  0
  7  6  2  0  0  0  0
  8  7  1  0  0  0  0
 13  8  1  0  0  0  0
M  RAD  4   2   2   3   3   4   2   9   2
M  END
