Coordinates from ORCA-job PhN2+_B3LYPG-6-31G_dp-d09-49-n800
 OpenBabel11261919553D

 13 13  0  0  0  0  0  0  0  0999 V2000
   -1.3523   -0.0801   -0.0619 C   0  0  0  0  0  0  0  0  0  0  0  0
   -2.7248   -0.1535   -0.1072 N   0  0  0  0  0  0  0  0  0  0  0  0
   -3.8380   -0.2130   -0.1453 N   0  0  0  0  0  0  0  0  0  0  0  0
   -0.7572    1.1982   -0.0403 C   0  0  0  0  0  0  0  0  0  0  0  0
    0.6261    1.2550    0.0056 C   0  0  0  0  0  0  0  0  0  0  0  0
    1.3764    0.0695    0.0288 C   0  0  0  0  0  0  0  0  0  0  0  0
    0.7584   -1.1900    0.0063 C   0  0  0  0  0  0  0  0  0  0  0  0
   -0.6235   -1.2890   -0.0395 C   0  0  0  0  0  0  0  0  0  0  0  0
   -1.4227    2.1728   -0.0608 H   0  0  0  0  0  0  0  0  0  0  0  0
    1.1236    2.2183    0.0235 H   0  0  0  0  0  0  0  0  0  0  0  0
    2.4601    0.1287    0.0652 H   0  0  0  0  0  0  0  0  0  0  0  0
    1.3579   -2.0934    0.0249 H   0  0  0  0  0  0  0  0  0  0  0  0
   -1.1325   -2.2465   -0.0577 H   0  0  0  0  0  0  0  0  0  0  0  0
  1  4  2  0  0  0  0
  1  8  1  0  0  0  0
  2  1  1  0  0  0  0
  3  2  1  0  0  0  0
  4  5  1  0  0  0  0
  5 10  1  0  0  0  0
  5  6  2  0  0  0  0
  6 11  1  0  0  0  0
  7 12  1  0  0  0  0
  7  6  1  0  0  0  0
  8  7  2  0  0  0  0
  9  4  1  0  0  0  0
 13  8  1  0  0  0  0
M  RAD  2   2   2   3   3
M  END
