Coordinates from ORCA-job PhN2+_B3LYPG-6-31G_dp-d09-49-n800
 OpenBabel11261919563D

 13 12  0  0  0  0  0  0  0  0999 V2000
   -1.2530   -0.3983   -0.0603 C   0  0  0  0  0  0  0  0  0  0  0  0
   -2.6263   -0.5156   -0.1060 N   0  0  0  0  0  0  0  0  0  0  0  0
   -3.7371   -0.6049   -0.1435 N   0  0  0  0  0  0  0  0  0  0  0  0
   -0.6915    0.8743   -0.0406 C   0  0  0  0  0  0  0  0  0  0  0  0
    0.6659    1.0450    0.0053 C   0  0  0  0  0  0  0  0  0  0  0  0
    1.4690   -0.1155    0.0318 C   0  0  0  0  0  0  0  0  0  0  0  0
    0.9079   -1.4048    0.0119 C   0  0  0  0  0  0  0  0  0  0  0  0
   -0.4639   -1.5793   -0.0345 C   0  0  0  0  0  0  0  0  0  0  0  0
   -2.7282    5.2865   -0.0954 H   0  0  0  0  0  0  0  0  0  0  0  0
    1.1300    2.0281    0.0214 H   0  0  0  0  0  0  0  0  0  0  0  0
    2.5499   -0.0018    0.0689 H   0  0  0  0  0  0  0  0  0  0  0  0
    1.5557   -2.2745    0.0334 H   0  0  0  0  0  0  0  0  0  0  0  0
   -0.9267   -2.5620   -0.0507 H   0  0  0  0  0  0  0  0  0  0  0  0
  1  4  2  0  0  0  0
  1  8  1  0  0  0  0
  2  1  1  0  0  0  0
  3  2  1  0  0  0  0
  4  5  1  0  0  0  0
  5 10  1  0  0  0  0
  5  6  2  0  0  0  0
  6 11  1  0  0  0  0
  7  6  1  0  0  0  0
  7 12  1  0  0  0  0
  8  7  2  0  0  0  0
 13  8  1  0  0  0  0
M  RAD  4   2   2   3   3   4   2   9   2
M  END
