Coordinates from ORCA-job PhN2+_B3LYPG-6-31G_dp-d09-49-n800
 OpenBabel11261919553D

 13 13  0  0  0  0  0  0  0  0999 V2000
   -1.3564   -0.0716   -0.0617 C   0  0  0  0  0  0  0  0  0  0  0  0
   -2.7295   -0.1480   -0.1069 N   0  0  0  0  0  0  0  0  0  0  0  0
   -3.8426   -0.2095   -0.1468 N   0  0  0  0  0  0  0  0  0  0  0  0
   -0.7667    1.2107   -0.0402 C   0  0  0  0  0  0  0  0  0  0  0  0
    0.6184    1.2619    0.0053 C   0  0  0  0  0  0  0  0  0  0  0  0
    1.3710    0.0783    0.0284 C   0  0  0  0  0  0  0  0  0  0  0  0
    0.7539   -1.1813    0.0061 C   0  0  0  0  0  0  0  0  0  0  0  0
   -0.6283   -1.2800   -0.0393 C   0  0  0  0  0  0  0  0  0  0  0  0
   -1.3546    2.0746   -0.0583 H   0  0  0  0  0  0  0  0  0  0  0  0
    1.1154    2.2257    0.0231 H   0  0  0  0  0  0  0  0  0  0  0  0
    2.4545    0.1386    0.0645 H   0  0  0  0  0  0  0  0  0  0  0  0
    1.3534   -2.0848    0.0246 H   0  0  0  0  0  0  0  0  0  0  0  0
   -1.1372   -2.2375   -0.0573 H   0  0  0  0  0  0  0  0  0  0  0  0
  1  4  2  0  0  0  0
  1  8  1  0  0  0  0
  2  1  1  0  0  0  0
  3  2  1  0  0  0  0
  4  5  1  0  0  0  0
  5 10  1  0  0  0  0
  5  6  2  0  0  0  0
  6 11  1  0  0  0  0
  7 12  1  0  0  0  0
  7  6  1  0  0  0  0
  8  7  2  0  0  0  0
  9  4  1  0  0  0  0
 13  8  1  0  0  0  0
M  RAD  2   2   2   3   3
M  END
