Coordinates from ORCA-job PhN2+_B3LYPG-6-31G_dp-d09-49-n800
 OpenBabel11261919563D

 13 12  0  0  0  0  0  0  0  0999 V2000
   -1.3350   -0.1154   -0.0616 C   0  0  0  0  0  0  0  0  0  0  0  0
   -2.7058   -0.1704   -0.1069 N   0  0  0  0  0  0  0  0  0  0  0  0
   -3.8193   -0.2162   -0.1437 N   0  0  0  0  0  0  0  0  0  0  0  0
   -0.7136    1.1413   -0.0391 C   0  0  0  0  0  0  0  0  0  0  0  0
    0.6588    1.2280    0.0067 C   0  0  0  0  0  0  0  0  0  0  0  0
    1.4007    0.0335    0.0297 C   0  0  0  0  0  0  0  0  0  0  0  0
    0.7776   -1.2250    0.0069 C   0  0  0  0  0  0  0  0  0  0  0  0
   -0.6038   -1.3261   -0.0392 C   0  0  0  0  0  0  0  0  0  0  0  0
   -1.7137    2.5599   -0.0703 H   0  0  0  0  0  0  0  0  0  0  0  0
    1.1563    2.1907    0.0247 H   0  0  0  0  0  0  0  0  0  0  0  0
    2.4849    0.0890    0.0663 H   0  0  0  0  0  0  0  0  0  0  0  0
    1.3773   -2.1282    0.0256 H   0  0  0  0  0  0  0  0  0  0  0  0
   -1.1130   -2.2839   -0.0575 H   0  0  0  0  0  0  0  0  0  0  0  0
  1  8  2  0  0  0  0
  1  4  1  0  0  0  0
  2  1  1  0  0  0  0
  3  2  1  0  0  0  0
  4  5  2  0  0  0  0
  5 10  1  0  0  0  0
  5  6  1  0  0  0  0
  6 11  1  0  0  0  0
  7 12  1  0  0  0  0
  7  6  2  0  0  0  0
  8  7  1  0  0  0  0
 13  8  1  0  0  0  0
M  RAD  4   2   2   3   3   4   2   9   2
M  END
