Coordinates from ORCA-job PhN2+_B3LYPG-6-31G_dp-d09-49-n800
 OpenBabel11261919563D

 13 12  0  0  0  0  0  0  0  0999 V2000
   -1.2501   -0.3015   -0.0599 C   0  0  0  0  0  0  0  0  0  0  0  0
   -2.6257   -0.3717   -0.1058 N   0  0  0  0  0  0  0  0  0  0  0  0
   -3.7388   -0.4260   -0.1424 N   0  0  0  0  0  0  0  0  0  0  0  0
   -0.6408    0.9486   -0.0384 C   0  0  0  0  0  0  0  0  0  0  0  0
    0.7200    1.0765    0.0074 C   0  0  0  0  0  0  0  0  0  0  0  0
    1.4823   -0.1118    0.0323 C   0  0  0  0  0  0  0  0  0  0  0  0
    0.8768   -1.3806    0.0108 C   0  0  0  0  0  0  0  0  0  0  0  0
   -0.5004   -1.5079   -0.0357 C   0  0  0  0  0  0  0  0  0  0  0  0
   -2.7517    4.5896   -0.0985 H   0  0  0  0  0  0  0  0  0  0  0  0
    1.2158    2.0438    0.0248 H   0  0  0  0  0  0  0  0  0  0  0  0
    2.5664   -0.0354    0.0693 H   0  0  0  0  0  0  0  0  0  0  0  0
    1.4942   -2.2722    0.0310 H   0  0  0  0  0  0  0  0  0  0  0  0
   -0.9965   -2.4741   -0.0531 H   0  0  0  0  0  0  0  0  0  0  0  0
  1  4  2  0  0  0  0
  1  8  1  0  0  0  0
  2  1  1  0  0  0  0
  3  2  1  0  0  0  0
  4  5  1  0  0  0  0
  5 10  1  0  0  0  0
  5  6  2  0  0  0  0
  6 11  1  0  0  0  0
  7 12  1  0  0  0  0
  7  6  1  0  0  0  0
  8  7  2  0  0  0  0
 13  8  1  0  0  0  0
M  RAD  4   2   2   3   3   4   2   9   2
M  END
