Coordinates from ORCA-job PhN2+_B3LYPG-6-31G_dp-d09-49-n800
 OpenBabel11261919563D

 13 12  0  0  0  0  0  0  0  0999 V2000
   -1.2523   -0.3887   -0.0602 C   0  0  0  0  0  0  0  0  0  0  0  0
   -2.6260   -0.5009   -0.1059 N   0  0  0  0  0  0  0  0  0  0  0  0
   -3.7371   -0.5862   -0.1427 N   0  0  0  0  0  0  0  0  0  0  0  0
   -0.6857    0.8815   -0.0401 C   0  0  0  0  0  0  0  0  0  0  0  0
    0.6721    1.0477    0.0058 C   0  0  0  0  0  0  0  0  0  0  0  0
    1.4709   -0.1159    0.0320 C   0  0  0  0  0  0  0  0  0  0  0  0
    0.9050   -1.4031    0.0116 C   0  0  0  0  0  0  0  0  0  0  0  0
   -0.4675   -1.5726   -0.0349 C   0  0  0  0  0  0  0  0  0  0  0  0
   -2.7356    5.2213   -0.0966 H   0  0  0  0  0  0  0  0  0  0  0  0
    1.1398    2.0291    0.0223 H   0  0  0  0  0  0  0  0  0  0  0  0
    2.5522   -0.0063    0.0690 H   0  0  0  0  0  0  0  0  0  0  0  0
    1.5496   -2.2752    0.0328 H   0  0  0  0  0  0  0  0  0  0  0  0
   -0.9338   -2.5535   -0.0514 H   0  0  0  0  0  0  0  0  0  0  0  0
  1  4  2  0  0  0  0
  1  8  1  0  0  0  0
  2  1  1  0  0  0  0
  3  2  1  0  0  0  0
  4  5  1  0  0  0  0
  5 10  1  0  0  0  0
  5  6  2  0  0  0  0
  6 11  1  0  0  0  0
  7  6  1  0  0  0  0
  7 12  1  0  0  0  0
  8  7  2  0  0  0  0
 13  8  1  0  0  0  0
M  RAD  4   2   2   3   3   4   2   9   2
M  END
