Coordinates from ORCA-job PhN2+_B3LYPG-6-31G_dp-d09-49-n800
 OpenBabel11261919563D

 13 12  0  0  0  0  0  0  0  0999 V2000
   -1.2646   -0.2171   -0.0596 C   0  0  0  0  0  0  0  0  0  0  0  0
   -2.6394   -0.2565   -0.1052 N   0  0  0  0  0  0  0  0  0  0  0  0
   -3.7531   -0.2893   -0.1420 N   0  0  0  0  0  0  0  0  0  0  0  0
   -0.6215    1.0167   -0.0366 C   0  0  0  0  0  0  0  0  0  0  0  0
    0.7395    1.1228    0.0089 C   0  0  0  0  0  0  0  0  0  0  0  0
    1.4752   -0.0827    0.0320 C   0  0  0  0  0  0  0  0  0  0  0  0
    0.8427   -1.3377    0.0092 C   0  0  0  0  0  0  0  0  0  0  0  0
   -0.5374   -1.4366   -0.0370 C   0  0  0  0  0  0  0  0  0  0  0  0
   -2.5897    3.8413   -0.0967 H   0  0  0  0  0  0  0  0  0  0  0  0
    1.2511    2.0810    0.0272 H   0  0  0  0  0  0  0  0  0  0  0  0
    2.5606   -0.0295    0.0688 H   0  0  0  0  0  0  0  0  0  0  0  0
    1.4408   -2.2423    0.0281 H   0  0  0  0  0  0  0  0  0  0  0  0
   -1.0526   -2.3926   -0.0554 H   0  0  0  0  0  0  0  0  0  0  0  0
  1  8  2  0  0  0  0
  1  4  1  0  0  0  0
  2  1  1  0  0  0  0
  3  2  1  0  0  0  0
  4  5  2  0  0  0  0
  5 10  1  0  0  0  0
  5  6  1  0  0  0  0
  6 11  1  0  0  0  0
  7 12  1  0  0  0  0
  7  6  2  0  0  0  0
  8  7  1  0  0  0  0
 13  8  1  0  0  0  0
M  RAD  4   2   2   3   3   4   2   9   2
M  END
