Coordinates from ORCA-job PhN2+_B3LYPG-6-31G_dp-d09-49-n800
 OpenBabel11261919563D

 13 12  0  0  0  0  0  0  0  0999 V2000
   -1.3106   -0.1506   -0.0608 C   0  0  0  0  0  0  0  0  0  0  0  0
   -2.6819   -0.1889   -0.1061 N   0  0  0  0  0  0  0  0  0  0  0  0
   -3.7954   -0.2218   -0.1428 N   0  0  0  0  0  0  0  0  0  0  0  0
   -0.6671    1.0873   -0.0377 C   0  0  0  0  0  0  0  0  0  0  0  0
    0.6960    1.1933    0.0079 C   0  0  0  0  0  0  0  0  0  0  0  0
    1.4308   -0.0101    0.0306 C   0  0  0  0  0  0  0  0  0  0  0  0
    0.8006   -1.2656    0.0077 C   0  0  0  0  0  0  0  0  0  0  0  0
   -0.5807   -1.3654   -0.0385 C   0  0  0  0  0  0  0  0  0  0  0  0
   -2.0597    2.9944   -0.0811 H   0  0  0  0  0  0  0  0  0  0  0  0
    1.1982    2.1544    0.0260 H   0  0  0  0  0  0  0  0  0  0  0  0
    2.5157    0.0423    0.0673 H   0  0  0  0  0  0  0  0  0  0  0  0
    1.3986   -2.1701    0.0263 H   0  0  0  0  0  0  0  0  0  0  0  0
   -1.0930   -2.3221   -0.0569 H   0  0  0  0  0  0  0  0  0  0  0  0
  1  8  2  0  0  0  0
  1  4  1  0  0  0  0
  2  1  1  0  0  0  0
  3  2  1  0  0  0  0
  4  5  2  0  0  0  0
  5 10  1  0  0  0  0
  5  6  1  0  0  0  0
  6 11  1  0  0  0  0
  7 12  1  0  0  0  0
  7  6  2  0  0  0  0
  8  7  1  0  0  0  0
 13  8  1  0  0  0  0
M  RAD  4   2   2   3   3   4   2   9   2
M  END
