Coordinates from ORCA-job PhN2+_B3LYPG-6-31G_dp-d09-49-n800
 OpenBabel11261919563D

 13 12  0  0  0  0  0  0  0  0999 V2000
   -1.2647   -0.2176   -0.0591 C   0  0  0  0  0  0  0  0  0  0  0  0
   -2.6395   -0.2569   -0.1041 N   0  0  0  0  0  0  0  0  0  0  0  0
   -3.7531   -0.2897   -0.1441 N   0  0  0  0  0  0  0  0  0  0  0  0
   -0.6213    1.0161   -0.0364 C   0  0  0  0  0  0  0  0  0  0  0  0
    0.7398    1.1227    0.0088 C   0  0  0  0  0  0  0  0  0  0  0  0
    1.4755   -0.0830    0.0318 C   0  0  0  0  0  0  0  0  0  0  0  0
    0.8429   -1.3379    0.0092 C   0  0  0  0  0  0  0  0  0  0  0  0
   -0.5373   -1.4370   -0.0366 C   0  0  0  0  0  0  0  0  0  0  0  0
   -2.5916    3.8452   -0.0962 H   0  0  0  0  0  0  0  0  0  0  0  0
    1.2513    2.0809    0.0269 H   0  0  0  0  0  0  0  0  0  0  0  0
    2.5609   -0.0299    0.0683 H   0  0  0  0  0  0  0  0  0  0  0  0
    1.4410   -2.2425    0.0280 H   0  0  0  0  0  0  0  0  0  0  0  0
   -1.0523   -2.3931   -0.0548 H   0  0  0  0  0  0  0  0  0  0  0  0
  1  8  2  0  0  0  0
  1  4  1  0  0  0  0
  2  1  1  0  0  0  0
  3  2  1  0  0  0  0
  4  5  2  0  0  0  0
  5 10  1  0  0  0  0
  5  6  1  0  0  0  0
  6 11  1  0  0  0  0
  7 12  1  0  0  0  0
  7  6  2  0  0  0  0
  8  7  1  0  0  0  0
 13  8  1  0  0  0  0
M  RAD  4   2   2   3   3   4   2   9   2
M  END
