Coordinates from ORCA-job PhN2+_B3LYPG-6-31G_dp-d09-49-n800
 OpenBabel11261919563D

 13 12  0  0  0  0  0  0  0  0999 V2000
   -1.2500   -0.3428   -0.0601 C   0  0  0  0  0  0  0  0  0  0  0  0
   -2.6251   -0.4320   -0.1060 N   0  0  0  0  0  0  0  0  0  0  0  0
   -3.7374   -0.4999   -0.1429 N   0  0  0  0  0  0  0  0  0  0  0  0
   -0.6604    0.9170   -0.0394 C   0  0  0  0  0  0  0  0  0  0  0  0
    0.6994    1.0617    0.0065 C   0  0  0  0  0  0  0  0  0  0  0  0
    1.4783   -0.1157    0.0321 C   0  0  0  0  0  0  0  0  0  0  0  0
    0.8906   -1.3929    0.0113 C   0  0  0  0  0  0  0  0  0  0  0  0
   -0.4846   -1.5393   -0.0352 C   0  0  0  0  0  0  0  0  0  0  0  0
   -2.7565    4.8980   -0.0974 H   0  0  0  0  0  0  0  0  0  0  0  0
    1.1829    2.0353    0.0234 H   0  0  0  0  0  0  0  0  0  0  0  0
    2.5613   -0.0243    0.0692 H   0  0  0  0  0  0  0  0  0  0  0  0
    1.5203   -2.2758    0.0321 H   0  0  0  0  0  0  0  0  0  0  0  0
   -0.9673   -2.5122   -0.0520 H   0  0  0  0  0  0  0  0  0  0  0  0
  1  4  2  0  0  0  0
  1  8  1  0  0  0  0
  2  1  1  0  0  0  0
  3  2  1  0  0  0  0
  4  5  1  0  0  0  0
  5 10  1  0  0  0  0
  5  6  2  0  0  0  0
  6 11  1  0  0  0  0
  7 12  1  0  0  0  0
  7  6  1  0  0  0  0
  8  7  2  0  0  0  0
 13  8  1  0  0  0  0
M  RAD  4   2   2   3   3   4   2   9   2
M  END
