Coordinates from ORCA-job PhN2+_B3LYPG-6-31G_dp-d09-49-n800
 OpenBabel11261919563D

 13 12  0  0  0  0  0  0  0  0999 V2000
   -1.2688   -0.2074   -0.0596 C   0  0  0  0  0  0  0  0  0  0  0  0
   -2.6433   -0.2442   -0.1052 N   0  0  0  0  0  0  0  0  0  0  0  0
   -3.7569   -0.2753   -0.1420 N   0  0  0  0  0  0  0  0  0  0  0  0
   -0.6227    1.0249   -0.0365 C   0  0  0  0  0  0  0  0  0  0  0  0
    0.7380    1.1307    0.0090 C   0  0  0  0  0  0  0  0  0  0  0  0
    1.4719   -0.0759    0.0319 C   0  0  0  0  0  0  0  0  0  0  0  0
    0.8378   -1.3300    0.0090 C   0  0  0  0  0  0  0  0  0  0  0  0
   -0.5427   -1.4273   -0.0372 C   0  0  0  0  0  0  0  0  0  0  0  0
   -2.5447    3.7351   -0.0956 H   0  0  0  0  0  0  0  0  0  0  0  0
    1.2498    2.0887    0.0273 H   0  0  0  0  0  0  0  0  0  0  0  0
    2.5573   -0.0242    0.0687 H   0  0  0  0  0  0  0  0  0  0  0  0
    1.4347   -2.2354    0.0277 H   0  0  0  0  0  0  0  0  0  0  0  0
   -1.0588   -2.3828   -0.0557 H   0  0  0  0  0  0  0  0  0  0  0  0
  1  8  2  0  0  0  0
  1  4  1  0  0  0  0
  2  1  1  0  0  0  0
  3  2  1  0  0  0  0
  4  5  2  0  0  0  0
  5 10  1  0  0  0  0
  5  6  1  0  0  0  0
  6 11  1  0  0  0  0
  7 12  1  0  0  0  0
  7  6  2  0  0  0  0
  8  7  1  0  0  0  0
 13  8  1  0  0  0  0
M  RAD  4   2   2   3   3   4   2   9   2
M  END
