Coordinates from ORCA-job PhN2+_B3LYPG-6-31G_dp-d09-49-n800
 OpenBabel11261919563D

 13 12  0  0  0  0  0  0  0  0999 V2000
   -1.3286   -0.1261   -0.0614 C   0  0  0  0  0  0  0  0  0  0  0  0
   -2.6993   -0.1753   -0.1067 N   0  0  0  0  0  0  0  0  0  0  0  0
   -3.8128   -0.2167   -0.1435 N   0  0  0  0  0  0  0  0  0  0  0  0
   -0.6994    1.1240   -0.0387 C   0  0  0  0  0  0  0  0  0  0  0  0
    0.6696    1.2187    0.0070 C   0  0  0  0  0  0  0  0  0  0  0  0
    1.4092    0.0213    0.0299 C   0  0  0  0  0  0  0  0  0  0  0  0
    0.7841   -1.2365    0.0072 C   0  0  0  0  0  0  0  0  0  0  0  0
   -0.5972   -1.3377   -0.0390 C   0  0  0  0  0  0  0  0  0  0  0  0
   -1.8121    2.6837   -0.0732 H   0  0  0  0  0  0  0  0  0  0  0  0
    1.1678    2.1811    0.0250 H   0  0  0  0  0  0  0  0  0  0  0  0
    2.4936    0.0758    0.0666 H   0  0  0  0  0  0  0  0  0  0  0  0
    1.3836   -2.1399    0.0259 H   0  0  0  0  0  0  0  0  0  0  0  0
   -1.1070   -2.2954   -0.0573 H   0  0  0  0  0  0  0  0  0  0  0  0
  1  8  2  0  0  0  0
  1  4  1  0  0  0  0
  2  1  1  0  0  0  0
  3  2  1  0  0  0  0
  4  5  2  0  0  0  0
  5 10  1  0  0  0  0
  5  6  1  0  0  0  0
  6 11  1  0  0  0  0
  7 12  1  0  0  0  0
  7  6  2  0  0  0  0
  8  7  1  0  0  0  0
 13  8  1  0  0  0  0
M  RAD  4   2   2   3   3   4   2   9   2
M  END
