Coordinates from ORCA-job PhN2+_B3LYPG-6-31G_dp-d09-49-n800
 OpenBabel11261919563D

 13 12  0  0  0  0  0  0  0  0999 V2000
   -1.3271   -0.1284   -0.0614 C   0  0  0  0  0  0  0  0  0  0  0  0
   -2.6978   -0.1764   -0.1067 N   0  0  0  0  0  0  0  0  0  0  0  0
   -3.8113   -0.2169   -0.1434 N   0  0  0  0  0  0  0  0  0  0  0  0
   -0.6963    1.1204   -0.0386 C   0  0  0  0  0  0  0  0  0  0  0  0
    0.6720    1.2165    0.0071 C   0  0  0  0  0  0  0  0  0  0  0  0
    1.4111    0.0185    0.0300 C   0  0  0  0  0  0  0  0  0  0  0  0
    0.7856   -1.2390    0.0072 C   0  0  0  0  0  0  0  0  0  0  0  0
   -0.5958   -1.3403   -0.0389 C   0  0  0  0  0  0  0  0  0  0  0  0
   -1.8342    2.7113   -0.0739 H   0  0  0  0  0  0  0  0  0  0  0  0
    1.1705    2.1789    0.0251 H   0  0  0  0  0  0  0  0  0  0  0  0
    2.4955    0.0729    0.0666 H   0  0  0  0  0  0  0  0  0  0  0  0
    1.3850   -2.1425    0.0259 H   0  0  0  0  0  0  0  0  0  0  0  0
   -1.1057   -2.2979   -0.0573 H   0  0  0  0  0  0  0  0  0  0  0  0
  1  8  2  0  0  0  0
  1  4  1  0  0  0  0
  2  1  1  0  0  0  0
  3  2  1  0  0  0  0
  4  5  2  0  0  0  0
  5 10  1  0  0  0  0
  5  6  1  0  0  0  0
  6 11  1  0  0  0  0
  7 12  1  0  0  0  0
  7  6  2  0  0  0  0
  8  7  1  0  0  0  0
 13  8  1  0  0  0  0
M  RAD  4   2   2   3   3   4   2   9   2
M  END
