Coordinates from ORCA-job PhN2+_B3LYPG-6-31G_dp-d09-49-n800
 OpenBabel11261919563D

 13 12  0  0  0  0  0  0  0  0999 V2000
   -1.2513   -0.2808   -0.0597 C   0  0  0  0  0  0  0  0  0  0  0  0
   -2.6271   -0.3424   -0.1054 N   0  0  0  0  0  0  0  0  0  0  0  0
   -3.7403   -0.3906   -0.1426 N   0  0  0  0  0  0  0  0  0  0  0  0
   -0.6330    0.9652   -0.0379 C   0  0  0  0  0  0  0  0  0  0  0  0
    0.7284    1.0854    0.0079 C   0  0  0  0  0  0  0  0  0  0  0  0
    1.4829   -0.1081    0.0322 C   0  0  0  0  0  0  0  0  0  0  0  0
    0.8694   -1.3728    0.0104 C   0  0  0  0  0  0  0  0  0  0  0  0
   -0.5087   -1.4915   -0.0359 C   0  0  0  0  0  0  0  0  0  0  0  0
   -2.7362    4.4245   -0.0987 H   0  0  0  0  0  0  0  0  0  0  0  0
    1.2297    2.0496    0.0255 H   0  0  0  0  0  0  0  0  0  0  0  0
    2.5674   -0.0385    0.0691 H   0  0  0  0  0  0  0  0  0  0  0  0
    1.4810   -2.2684    0.0303 H   0  0  0  0  0  0  0  0  0  0  0  0
   -1.0107   -2.4546   -0.0536 H   0  0  0  0  0  0  0  0  0  0  0  0
  1  4  2  0  0  0  0
  1  8  1  0  0  0  0
  2  1  1  0  0  0  0
  3  2  1  0  0  0  0
  4  5  1  0  0  0  0
  5 10  1  0  0  0  0
  5  6  2  0  0  0  0
  6 11  1  0  0  0  0
  7 12  1  0  0  0  0
  7  6  1  0  0  0  0
  8  7  2  0  0  0  0
 13  8  1  0  0  0  0
M  RAD  4   2   2   3   3   4   2   9   2
M  END
