Coordinates from ORCA-job PhN2+_B3LYPG-6-31G_dp-d09-49-n800
 OpenBabel11261919553D

 13 13  0  0  0  0  0  0  0  0999 V2000
   -1.3492   -0.0868   -0.0619 C   0  0  0  0  0  0  0  0  0  0  0  0
   -2.7212   -0.1573   -0.1072 N   0  0  0  0  0  0  0  0  0  0  0  0
   -3.8345   -0.2147   -0.1447 N   0  0  0  0  0  0  0  0  0  0  0  0
   -0.7493    1.1877   -0.0401 C   0  0  0  0  0  0  0  0  0  0  0  0
    0.6321    1.2499    0.0058 C   0  0  0  0  0  0  0  0  0  0  0  0
    1.3808    0.0628    0.0290 C   0  0  0  0  0  0  0  0  0  0  0  0
    0.7620   -1.1966    0.0064 C   0  0  0  0  0  0  0  0  0  0  0  0
   -0.6198   -1.2960   -0.0395 C   0  0  0  0  0  0  0  0  0  0  0  0
   -1.4762    2.2477   -0.0627 H   0  0  0  0  0  0  0  0  0  0  0  0
    1.1296    2.2130    0.0238 H   0  0  0  0  0  0  0  0  0  0  0  0
    2.4645    0.1212    0.0655 H   0  0  0  0  0  0  0  0  0  0  0  0
    1.3615   -2.1000    0.0251 H   0  0  0  0  0  0  0  0  0  0  0  0
   -1.1288   -2.2536   -0.0577 H   0  0  0  0  0  0  0  0  0  0  0  0
  1  4  2  0  0  0  0
  1  8  1  0  0  0  0
  2  1  1  0  0  0  0
  3  2  1  0  0  0  0
  4  5  1  0  0  0  0
  5 10  1  0  0  0  0
  5  6  2  0  0  0  0
  6 11  1  0  0  0  0
  7 12  1  0  0  0  0
  7  6  1  0  0  0  0
  8  7  2  0  0  0  0
  9  4  1  0  0  0  0
 13  8  1  0  0  0  0
M  RAD  2   2   2   3   3
M  END
