Coordinates from ORCA-job PhN2+_B3LYPG-6-31G_dp-d09-49-n800
 OpenBabel11261919563D

 13 12  0  0  0  0  0  0  0  0999 V2000
   -1.2501   -0.3465   -0.0601 C   0  0  0  0  0  0  0  0  0  0  0  0
   -2.6251   -0.4375   -0.1060 N   0  0  0  0  0  0  0  0  0  0  0  0
   -3.7373   -0.5069   -0.1428 N   0  0  0  0  0  0  0  0  0  0  0  0
   -0.6624    0.9139   -0.0395 C   0  0  0  0  0  0  0  0  0  0  0  0
    0.6972    1.0604    0.0065 C   0  0  0  0  0  0  0  0  0  0  0  0
    1.4778   -0.1158    0.0321 C   0  0  0  0  0  0  0  0  0  0  0  0
    0.8918   -1.3939    0.0114 C   0  0  0  0  0  0  0  0  0  0  0  0
   -0.4832   -1.5420   -0.0352 C   0  0  0  0  0  0  0  0  0  0  0  0
   -2.7552    4.9249   -0.0974 H   0  0  0  0  0  0  0  0  0  0  0  0
    1.1794    2.0347    0.0233 H   0  0  0  0  0  0  0  0  0  0  0  0
    2.5606   -0.0229    0.0692 H   0  0  0  0  0  0  0  0  0  0  0  0
    1.5228   -2.2759    0.0322 H   0  0  0  0  0  0  0  0  0  0  0  0
   -0.9647   -2.5156   -0.0520 H   0  0  0  0  0  0  0  0  0  0  0  0
  1  4  2  0  0  0  0
  1  8  1  0  0  0  0
  2  1  1  0  0  0  0
  3  2  1  0  0  0  0
  4  5  1  0  0  0  0
  5 10  1  0  0  0  0
  5  6  2  0  0  0  0
  6 11  1  0  0  0  0
  7  6  1  0  0  0  0
  7 12  1  0  0  0  0
  8  7  2  0  0  0  0
 13  8  1  0  0  0  0
M  RAD  4   2   2   3   3   4   2   9   2
M  END
