Coordinates from ORCA-job PhN2+_B3LYPG-6-31G_dp-d09-49-n800
 OpenBabel11261919563D

 13 12  0  0  0  0  0  0  0  0999 V2000
   -1.3252   -0.1312   -0.0613 C   0  0  0  0  0  0  0  0  0  0  0  0
   -2.6959   -0.1778   -0.1066 N   0  0  0  0  0  0  0  0  0  0  0  0
   -3.8094   -0.2172   -0.1433 N   0  0  0  0  0  0  0  0  0  0  0  0
   -0.6925    1.1159   -0.0385 C   0  0  0  0  0  0  0  0  0  0  0  0
    0.6750    1.2138    0.0072 C   0  0  0  0  0  0  0  0  0  0  0  0
    1.4135    0.0150    0.0301 C   0  0  0  0  0  0  0  0  0  0  0  0
    0.7874   -1.2423    0.0073 C   0  0  0  0  0  0  0  0  0  0  0  0
   -0.5939   -1.3434   -0.0389 C   0  0  0  0  0  0  0  0  0  0  0  0
   -1.8619    2.7459   -0.0748 H   0  0  0  0  0  0  0  0  0  0  0  0
    1.1738    2.1761    0.0252 H   0  0  0  0  0  0  0  0  0  0  0  0
    2.4980    0.0691    0.0667 H   0  0  0  0  0  0  0  0  0  0  0  0
    1.3867   -2.1458    0.0260 H   0  0  0  0  0  0  0  0  0  0  0  0
   -1.1041   -2.3010   -0.0572 H   0  0  0  0  0  0  0  0  0  0  0  0
  1  8  2  0  0  0  0
  1  4  1  0  0  0  0
  2  1  1  0  0  0  0
  3  2  1  0  0  0  0
  4  5  2  0  0  0  0
  5 10  1  0  0  0  0
  5  6  1  0  0  0  0
  6 11  1  0  0  0  0
  7 12  1  0  0  0  0
  7  6  2  0  0  0  0
  8  7  1  0  0  0  0
 13  8  1  0  0  0  0
M  RAD  4   2   2   3   3   4   2   9   2
M  END
