Coordinates from ORCA-job PhN2+_B3LYPG-6-31G_dp-d09-49-n800
 OpenBabel11261919553D

 13 13  0  0  0  0  0  0  0  0999 V2000
   -1.3549   -0.0747   -0.0618 C   0  0  0  0  0  0  0  0  0  0  0  0
   -2.7277   -0.1502   -0.1070 N   0  0  0  0  0  0  0  0  0  0  0  0
   -3.8409   -0.2110   -0.1461 N   0  0  0  0  0  0  0  0  0  0  0  0
   -0.7632    1.2062   -0.0403 C   0  0  0  0  0  0  0  0  0  0  0  0
    0.6212    1.2593    0.0054 C   0  0  0  0  0  0  0  0  0  0  0  0
    1.3730    0.0750    0.0285 C   0  0  0  0  0  0  0  0  0  0  0  0
    0.7556   -1.1845    0.0062 C   0  0  0  0  0  0  0  0  0  0  0  0
   -0.6265   -1.2833   -0.0394 C   0  0  0  0  0  0  0  0  0  0  0  0
   -1.3798    2.1112   -0.0592 H   0  0  0  0  0  0  0  0  0  0  0  0
    1.1185    2.2229    0.0233 H   0  0  0  0  0  0  0  0  0  0  0  0
    2.4566    0.1349    0.0648 H   0  0  0  0  0  0  0  0  0  0  0  0
    1.3551   -2.0880    0.0247 H   0  0  0  0  0  0  0  0  0  0  0  0
   -1.1355   -2.2408   -0.0575 H   0  0  0  0  0  0  0  0  0  0  0  0
  1  4  2  0  0  0  0
  1  8  1  0  0  0  0
  2  1  1  0  0  0  0
  3  2  1  0  0  0  0
  4  5  1  0  0  0  0
  5 10  1  0  0  0  0
  5  6  2  0  0  0  0
  6 11  1  0  0  0  0
  7 12  1  0  0  0  0
  7  6  1  0  0  0  0
  8  7  2  0  0  0  0
  9  4  1  0  0  0  0
 13  8  1  0  0  0  0
M  RAD  2   2   2   3   3
M  END
