Coordinates from ORCA-job PhN2+_B3LYPG-6-31G_dp-d09-49-n800
 OpenBabel11261919563D

 13 12  0  0  0  0  0  0  0  0999 V2000
   -1.2598   -0.2316   -0.0595 C   0  0  0  0  0  0  0  0  0  0  0  0
   -2.6351   -0.2752   -0.1051 N   0  0  0  0  0  0  0  0  0  0  0  0
   -3.7487   -0.3111   -0.1423 N   0  0  0  0  0  0  0  0  0  0  0  0
   -0.6216    1.0046   -0.0368 C   0  0  0  0  0  0  0  0  0  0  0  0
    0.7397    1.1124    0.0087 C   0  0  0  0  0  0  0  0  0  0  0  0
    1.4788   -0.0910    0.0321 C   0  0  0  0  0  0  0  0  0  0  0  0
    0.8495   -1.3477    0.0095 C   0  0  0  0  0  0  0  0  0  0  0  0
   -0.5303   -1.4499   -0.0367 C   0  0  0  0  0  0  0  0  0  0  0  0
   -2.6418    3.9878   -0.0976 H   0  0  0  0  0  0  0  0  0  0  0  0
    1.2502    2.0714    0.0269 H   0  0  0  0  0  0  0  0  0  0  0  0
    2.5640   -0.0349    0.0689 H   0  0  0  0  0  0  0  0  0  0  0  0
    1.4499   -2.2508    0.0286 H   0  0  0  0  0  0  0  0  0  0  0  0
   -1.0434   -2.4070   -0.0549 H   0  0  0  0  0  0  0  0  0  0  0  0
  1  4  2  0  0  0  0
  1  8  1  0  0  0  0
  2  1  1  0  0  0  0
  3  2  1  0  0  0  0
  4  5  1  0  0  0  0
  5 10  1  0  0  0  0
  5  6  2  0  0  0  0
  6 11  1  0  0  0  0
  7 12  1  0  0  0  0
  7  6  1  0  0  0  0
  8  7  2  0  0  0  0
 13  8  1  0  0  0  0
M  RAD  4   2   2   3   3   4   2   9   2
M  END
