Coordinates from ORCA-job PhN2+_B3LYPG-6-31G_dp-d09-49-n800
 OpenBabel11261919563D

 13 12  0  0  0  0  0  0  0  0999 V2000
   -1.3256   -0.1307   -0.0613 C   0  0  0  0  0  0  0  0  0  0  0  0
   -2.6963   -0.1775   -0.1066 N   0  0  0  0  0  0  0  0  0  0  0  0
   -3.8098   -0.2171   -0.1434 N   0  0  0  0  0  0  0  0  0  0  0  0
   -0.6932    1.1168   -0.0385 C   0  0  0  0  0  0  0  0  0  0  0  0
    0.6744    1.2144    0.0071 C   0  0  0  0  0  0  0  0  0  0  0  0
    1.4130    0.0157    0.0301 C   0  0  0  0  0  0  0  0  0  0  0  0
    0.7871   -1.2416    0.0073 C   0  0  0  0  0  0  0  0  0  0  0  0
   -0.5943   -1.3428   -0.0389 C   0  0  0  0  0  0  0  0  0  0  0  0
   -1.8563    2.7389   -0.0746 H   0  0  0  0  0  0  0  0  0  0  0  0
    1.1731    2.1767    0.0251 H   0  0  0  0  0  0  0  0  0  0  0  0
    2.4975    0.0699    0.0667 H   0  0  0  0  0  0  0  0  0  0  0  0
    1.3863   -2.1452    0.0260 H   0  0  0  0  0  0  0  0  0  0  0  0
   -1.1044   -2.3004   -0.0572 H   0  0  0  0  0  0  0  0  0  0  0  0
  1  8  2  0  0  0  0
  1  4  1  0  0  0  0
  2  1  1  0  0  0  0
  3  2  1  0  0  0  0
  4  5  2  0  0  0  0
  5 10  1  0  0  0  0
  5  6  1  0  0  0  0
  6 11  1  0  0  0  0
  7 12  1  0  0  0  0
  7  6  2  0  0  0  0
  8  7  1  0  0  0  0
 13  8  1  0  0  0  0
M  RAD  4   2   2   3   3   4   2   9   2
M  END
