Coordinates from ORCA-job PhN2+_B3LYPG-6-31G_dp-d09-49-n800
 OpenBabel11261919563D

 13 12  0  0  0  0  0  0  0  0999 V2000
   -1.2755   -0.1946   -0.0598 C   0  0  0  0  0  0  0  0  0  0  0  0
   -2.6494   -0.2291   -0.1054 N   0  0  0  0  0  0  0  0  0  0  0  0
   -3.7630   -0.2584   -0.1419 N   0  0  0  0  0  0  0  0  0  0  0  0
   -0.6268    1.0367   -0.0365 C   0  0  0  0  0  0  0  0  0  0  0  0
    0.7339    1.1424    0.0090 C   0  0  0  0  0  0  0  0  0  0  0  0
    1.4661   -0.0652    0.0318 C   0  0  0  0  0  0  0  0  0  0  0  0
    0.8307   -1.3185    0.0087 C   0  0  0  0  0  0  0  0  0  0  0  0
   -0.5500   -1.4146   -0.0375 C   0  0  0  0  0  0  0  0  0  0  0  0
   -2.4711    3.5870   -0.0938 H   0  0  0  0  0  0  0  0  0  0  0  0
    1.2452    2.1003    0.0274 H   0  0  0  0  0  0  0  0  0  0  0  0
    2.5515   -0.0147    0.0685 H   0  0  0  0  0  0  0  0  0  0  0  0
    1.4266   -2.2245    0.0273 H   0  0  0  0  0  0  0  0  0  0  0  0
   -1.0667   -2.3696   -0.0560 H   0  0  0  0  0  0  0  0  0  0  0  0
  1  8  2  0  0  0  0
  1  4  1  0  0  0  0
  2  1  1  0  0  0  0
  3  2  1  0  0  0  0
  4  5  2  0  0  0  0
  5 10  1  0  0  0  0
  5  6  1  0  0  0  0
  6 11  1  0  0  0  0
  7 12  1  0  0  0  0
  7  6  2  0  0  0  0
  8  7  1  0  0  0  0
 13  8  1  0  0  0  0
M  RAD  4   2   2   3   3   4   2   9   2
M  END
