Coordinates from ORCA-job PhN2+_B3LYPG-6-31G_dp-d09-49-n800
 OpenBabel11261919563D

 13 12  0  0  0  0  0  0  0  0999 V2000
   -1.3297   -0.1243   -0.0614 C   0  0  0  0  0  0  0  0  0  0  0  0
   -2.7004   -0.1744   -0.1068 N   0  0  0  0  0  0  0  0  0  0  0  0
   -3.8139   -0.2166   -0.1435 N   0  0  0  0  0  0  0  0  0  0  0  0
   -0.7017    1.1268   -0.0388 C   0  0  0  0  0  0  0  0  0  0  0  0
    0.6678    1.2203    0.0069 C   0  0  0  0  0  0  0  0  0  0  0  0
    1.4077    0.0233    0.0299 C   0  0  0  0  0  0  0  0  0  0  0  0
    0.7831   -1.2345    0.0071 C   0  0  0  0  0  0  0  0  0  0  0  0
   -0.5983   -1.3358   -0.0390 C   0  0  0  0  0  0  0  0  0  0  0  0
   -1.7956    2.6631   -0.0727 H   0  0  0  0  0  0  0  0  0  0  0  0
    1.1659    2.1828    0.0249 H   0  0  0  0  0  0  0  0  0  0  0  0
    2.4921    0.0780    0.0665 H   0  0  0  0  0  0  0  0  0  0  0  0
    1.3825   -2.1379    0.0258 H   0  0  0  0  0  0  0  0  0  0  0  0
   -1.1080   -2.2936   -0.0573 H   0  0  0  0  0  0  0  0  0  0  0  0
  1  8  2  0  0  0  0
  1  4  1  0  0  0  0
  2  1  1  0  0  0  0
  3  2  1  0  0  0  0
  4  5  2  0  0  0  0
  5 10  1  0  0  0  0
  5  6  1  0  0  0  0
  6 11  1  0  0  0  0
  7 12  1  0  0  0  0
  7  6  2  0  0  0  0
  8  7  1  0  0  0  0
 13  8  1  0  0  0  0
M  RAD  4   2   2   3   3   4   2   9   2
M  END
