Coordinates from ORCA-job PhN2+_B3LYPG-6-31G_dp-d09-49-n800
 OpenBabel11261919563D

 13 12  0  0  0  0  0  0  0  0999 V2000
   -1.2587   -0.2354   -0.0595 C   0  0  0  0  0  0  0  0  0  0  0  0
   -2.6340   -0.2802   -0.1052 N   0  0  0  0  0  0  0  0  0  0  0  0
   -3.7476   -0.3168   -0.1422 N   0  0  0  0  0  0  0  0  0  0  0  0
   -0.6218    1.0015   -0.0369 C   0  0  0  0  0  0  0  0  0  0  0  0
    0.7395    1.1098    0.0087 C   0  0  0  0  0  0  0  0  0  0  0  0
    1.4795   -0.0930    0.0321 C   0  0  0  0  0  0  0  0  0  0  0  0
    0.8512   -1.3502    0.0096 C   0  0  0  0  0  0  0  0  0  0  0  0
   -0.5285   -1.4533   -0.0367 C   0  0  0  0  0  0  0  0  0  0  0  0
   -2.6538    4.0250   -0.0978 H   0  0  0  0  0  0  0  0  0  0  0  0
    1.2496    2.0691    0.0268 H   0  0  0  0  0  0  0  0  0  0  0  0
    2.5648   -0.0361    0.0689 H   0  0  0  0  0  0  0  0  0  0  0  0
    1.4523   -2.2528    0.0287 H   0  0  0  0  0  0  0  0  0  0  0  0
   -1.0409   -2.4107   -0.0549 H   0  0  0  0  0  0  0  0  0  0  0  0
  1  4  2  0  0  0  0
  1  8  1  0  0  0  0
  2  1  1  0  0  0  0
  3  2  1  0  0  0  0
  4  5  1  0  0  0  0
  5 10  1  0  0  0  0
  5  6  2  0  0  0  0
  6 11  1  0  0  0  0
  7 12  1  0  0  0  0
  7  6  1  0  0  0  0
  8  7  2  0  0  0  0
 13  8  1  0  0  0  0
M  RAD  4   2   2   3   3   4   2   9   2
M  END
