Coordinates from ORCA-job PhN2+_B3LYPG-6-31G_dp-d09-49-n800
 OpenBabel11261919563D

 13 12  0  0  0  0  0  0  0  0999 V2000
   -1.2525   -0.2696   -0.0596 C   0  0  0  0  0  0  0  0  0  0  0  0
   -2.6283   -0.3264   -0.1055 N   0  0  0  0  0  0  0  0  0  0  0  0
   -3.7417   -0.3712   -0.1425 N   0  0  0  0  0  0  0  0  0  0  0  0
   -0.6287    0.9734   -0.0375 C   0  0  0  0  0  0  0  0  0  0  0  0
    0.7325    1.0908    0.0081 C   0  0  0  0  0  0  0  0  0  0  0  0
    1.4830   -0.1054    0.0322 C   0  0  0  0  0  0  0  0  0  0  0  0
    0.8652   -1.3680    0.0102 C   0  0  0  0  0  0  0  0  0  0  0  0
   -0.5134   -1.4825   -0.0361 C   0  0  0  0  0  0  0  0  0  0  0  0
   -2.7242    4.3316   -0.0987 H   0  0  0  0  0  0  0  0  0  0  0  0
    1.2363    2.0537    0.0258 H   0  0  0  0  0  0  0  0  0  0  0  0
    2.5678   -0.0396    0.0691 H   0  0  0  0  0  0  0  0  0  0  0  0
    1.4738   -2.2656    0.0299 H   0  0  0  0  0  0  0  0  0  0  0  0
   -1.0182   -2.4441   -0.0539 H   0  0  0  0  0  0  0  0  0  0  0  0
  1  4  2  0  0  0  0
  1  8  1  0  0  0  0
  2  1  1  0  0  0  0
  3  2  1  0  0  0  0
  4  5  1  0  0  0  0
  5 10  1  0  0  0  0
  5  6  2  0  0  0  0
  6 11  1  0  0  0  0
  7 12  1  0  0  0  0
  7  6  1  0  0  0  0
  8  7  2  0  0  0  0
 13  8  1  0  0  0  0
M  RAD  4   2   2   3   3   4   2   9   2
M  END
