Coordinates from ORCA-job PhN2+_B3LYPG-6-31G_dp-d09-49-n800
 OpenBabel11261919553D

 13 13  0  0  0  0  0  0  0  0999 V2000
   -1.3468   -0.0920   -0.0619 C   0  0  0  0  0  0  0  0  0  0  0  0
   -2.7185   -0.1599   -0.1072 N   0  0  0  0  0  0  0  0  0  0  0  0
   -3.8318   -0.2154   -0.1444 N   0  0  0  0  0  0  0  0  0  0  0  0
   -0.7432    1.1795   -0.0400 C   0  0  0  0  0  0  0  0  0  0  0  0
    0.6367    1.2460    0.0060 C   0  0  0  0  0  0  0  0  0  0  0  0
    1.3842    0.0577    0.0291 C   0  0  0  0  0  0  0  0  0  0  0  0
    0.7647   -1.2017    0.0065 C   0  0  0  0  0  0  0  0  0  0  0  0
   -0.6170   -1.3014   -0.0395 C   0  0  0  0  0  0  0  0  0  0  0  0
   -1.5175    2.3040   -0.0641 H   0  0  0  0  0  0  0  0  0  0  0  0
    1.1342    2.2090    0.0240 H   0  0  0  0  0  0  0  0  0  0  0  0
    2.4680    0.1155    0.0656 H   0  0  0  0  0  0  0  0  0  0  0  0
    1.3643   -2.1050    0.0252 H   0  0  0  0  0  0  0  0  0  0  0  0
   -1.1259   -2.2591   -0.0577 H   0  0  0  0  0  0  0  0  0  0  0  0
  1  4  2  0  0  0  0
  1  8  1  0  0  0  0
  2  1  1  0  0  0  0
  3  2  1  0  0  0  0
  4  5  1  0  0  0  0
  5 10  1  0  0  0  0
  5  6  2  0  0  0  0
  6 11  1  0  0  0  0
  7 12  1  0  0  0  0
  7  6  1  0  0  0  0
  8  7  2  0  0  0  0
  9  4  1  0  0  0  0
 13  8  1  0  0  0  0
M  RAD  2   2   2   3   3
M  END
