Coordinates from ORCA-job PhN2+_B3LYPG-6-31G_dp-d09-49-n800
 OpenBabel11261919563D

 13 12  0  0  0  0  0  0  0  0999 V2000
   -1.2504   -0.2929   -0.0598 C   0  0  0  0  0  0  0  0  0  0  0  0
   -2.6261   -0.3595   -0.1057 N   0  0  0  0  0  0  0  0  0  0  0  0
   -3.7393   -0.4111   -0.1423 N   0  0  0  0  0  0  0  0  0  0  0  0
   -0.6374    0.9558   -0.0382 C   0  0  0  0  0  0  0  0  0  0  0  0
    0.7238    1.0800    0.0076 C   0  0  0  0  0  0  0  0  0  0  0  0
    1.4827   -0.1105    0.0323 C   0  0  0  0  0  0  0  0  0  0  0  0
    0.8738   -1.3776    0.0106 C   0  0  0  0  0  0  0  0  0  0  0  0
   -0.5038   -1.5011   -0.0358 C   0  0  0  0  0  0  0  0  0  0  0  0
   -2.7469    4.5222   -0.0987 H   0  0  0  0  0  0  0  0  0  0  0  0
    1.2221    2.0459    0.0251 H   0  0  0  0  0  0  0  0  0  0  0  0
    2.5670   -0.0371    0.0693 H   0  0  0  0  0  0  0  0  0  0  0  0
    1.4887   -2.2709    0.0307 H   0  0  0  0  0  0  0  0  0  0  0  0
   -1.0024   -2.4660   -0.0534 H   0  0  0  0  0  0  0  0  0  0  0  0
  1  4  2  0  0  0  0
  1  8  1  0  0  0  0
  2  1  1  0  0  0  0
  3  2  1  0  0  0  0
  4  5  1  0  0  0  0
  5 10  1  0  0  0  0
  5  6  2  0  0  0  0
  6 11  1  0  0  0  0
  7 12  1  0  0  0  0
  7  6  1  0  0  0  0
  8  7  2  0  0  0  0
 13  8  1  0  0  0  0
M  RAD  4   2   2   3   3   4   2   9   2
M  END
