Coordinates from ORCA-job PhN2+_B3LYPG-6-31G_dp-d09-49-n800
 OpenBabel11261919563D

 13 12  0  0  0  0  0  0  0  0999 V2000
   -1.2536   -0.2609   -0.0596 C   0  0  0  0  0  0  0  0  0  0  0  0
   -2.6293   -0.3146   -0.1054 N   0  0  0  0  0  0  0  0  0  0  0  0
   -3.7428   -0.3572   -0.1423 N   0  0  0  0  0  0  0  0  0  0  0  0
   -0.6265    0.9807   -0.0374 C   0  0  0  0  0  0  0  0  0  0  0  0
    0.7349    1.0951    0.0083 C   0  0  0  0  0  0  0  0  0  0  0  0
    1.4825   -0.1029    0.0322 C   0  0  0  0  0  0  0  0  0  0  0  0
    0.8618   -1.3640    0.0101 C   0  0  0  0  0  0  0  0  0  0  0  0
   -0.5170   -1.4752   -0.0363 C   0  0  0  0  0  0  0  0  0  0  0  0
   -2.7107    4.2573   -0.0987 H   0  0  0  0  0  0  0  0  0  0  0  0
    1.2407    2.0569    0.0262 H   0  0  0  0  0  0  0  0  0  0  0  0
    2.5674   -0.0395    0.0691 H   0  0  0  0  0  0  0  0  0  0  0  0
    1.4684   -2.2630    0.0296 H   0  0  0  0  0  0  0  0  0  0  0  0
   -1.0241   -2.4356   -0.0542 H   0  0  0  0  0  0  0  0  0  0  0  0
  1  4  2  0  0  0  0
  1  8  1  0  0  0  0
  2  1  1  0  0  0  0
  3  2  1  0  0  0  0
  4  5  1  0  0  0  0
  5 10  1  0  0  0  0
  5  6  2  0  0  0  0
  6 11  1  0  0  0  0
  7 12  1  0  0  0  0
  7  6  1  0  0  0  0
  8  7  2  0  0  0  0
 13  8  1  0  0  0  0
M  RAD  4   2   2   3   3   4   2   9   2
M  END
