Coordinates from ORCA-job PhN2+_B3LYPG-6-31G_dp-d09-49-n800
 OpenBabel11261919563D

 13 12  0  0  0  0  0  0  0  0999 V2000
   -1.2970   -0.1656   -0.0605 C   0  0  0  0  0  0  0  0  0  0  0  0
   -2.6693   -0.1995   -0.1060 N   0  0  0  0  0  0  0  0  0  0  0  0
   -3.7829   -0.2287   -0.1428 N   0  0  0  0  0  0  0  0  0  0  0  0
   -0.6480    1.0672   -0.0373 C   0  0  0  0  0  0  0  0  0  0  0  0
    0.7131    1.1749    0.0082 C   0  0  0  0  0  0  0  0  0  0  0  0
    1.4454   -0.0315    0.0310 C   0  0  0  0  0  0  0  0  0  0  0  0
    0.8117   -1.2855    0.0081 C   0  0  0  0  0  0  0  0  0  0  0  0
   -0.5695   -1.3830   -0.0380 C   0  0  0  0  0  0  0  0  0  0  0  0
   -2.2256    3.2048   -0.0856 H   0  0  0  0  0  0  0  0  0  0  0  0
    1.2193    2.1346    0.0264 H   0  0  0  0  0  0  0  0  0  0  0  0
    2.5305    0.0191    0.0677 H   0  0  0  0  0  0  0  0  0  0  0  0
    1.4081   -2.1910    0.0269 H   0  0  0  0  0  0  0  0  0  0  0  0
   -1.0843   -2.3387   -0.0564 H   0  0  0  0  0  0  0  0  0  0  0  0
  1  8  2  0  0  0  0
  1  4  1  0  0  0  0
  2  1  1  0  0  0  0
  3  2  1  0  0  0  0
  4  5  2  0  0  0  0
  5 10  1  0  0  0  0
  5  6  1  0  0  0  0
  6 11  1  0  0  0  0
  7 12  1  0  0  0  0
  7  6  2  0  0  0  0
  8  7  1  0  0  0  0
 13  8  1  0  0  0  0
M  RAD  4   2   2   3   3   4   2   9   2
M  END
