Coordinates from ORCA-job PhN2+_B3LYPG-6-31G_dp-d09-49-n800
 OpenBabel11261919563D

 13 12  0  0  0  0  0  0  0  0999 V2000
   -1.2702   -0.2042   -0.0597 C   0  0  0  0  0  0  0  0  0  0  0  0
   -2.6445   -0.2403   -0.1052 N   0  0  0  0  0  0  0  0  0  0  0  0
   -3.7582   -0.2708   -0.1420 N   0  0  0  0  0  0  0  0  0  0  0  0
   -0.6233    1.0277   -0.0365 C   0  0  0  0  0  0  0  0  0  0  0  0
    0.7374    1.1334    0.0090 C   0  0  0  0  0  0  0  0  0  0  0  0
    1.4707   -0.0736    0.0319 C   0  0  0  0  0  0  0  0  0  0  0  0
    0.8361   -1.3274    0.0089 C   0  0  0  0  0  0  0  0  0  0  0  0
   -0.5444   -1.4243   -0.0373 C   0  0  0  0  0  0  0  0  0  0  0  0
   -2.5293    3.7002   -0.0953 H   0  0  0  0  0  0  0  0  0  0  0  0
    1.2492    2.0913    0.0273 H   0  0  0  0  0  0  0  0  0  0  0  0
    2.5561   -0.0224    0.0686 H   0  0  0  0  0  0  0  0  0  0  0  0
    1.4327   -2.2330    0.0276 H   0  0  0  0  0  0  0  0  0  0  0  0
   -1.0607   -2.3796   -0.0558 H   0  0  0  0  0  0  0  0  0  0  0  0
  1  8  2  0  0  0  0
  1  4  1  0  0  0  0
  2  1  1  0  0  0  0
  3  2  1  0  0  0  0
  4  5  2  0  0  0  0
  5 10  1  0  0  0  0
  5  6  1  0  0  0  0
  6 11  1  0  0  0  0
  7 12  1  0  0  0  0
  7  6  2  0  0  0  0
  8  7  1  0  0  0  0
 13  8  1  0  0  0  0
M  RAD  4   2   2   3   3   4   2   9   2
M  END
