Coordinates from ORCA-job PhN2+_B3LYPG-6-31G_dp-d09-49-n800
 OpenBabel11261919563D

 13 12  0  0  0  0  0  0  0  0999 V2000
   -1.2765   -0.1930   -0.0598 C   0  0  0  0  0  0  0  0  0  0  0  0
   -2.6503   -0.2272   -0.1053 N   0  0  0  0  0  0  0  0  0  0  0  0
   -3.7640   -0.2564   -0.1421 N   0  0  0  0  0  0  0  0  0  0  0  0
   -0.6275    1.0383   -0.0365 C   0  0  0  0  0  0  0  0  0  0  0  0
    0.7331    1.1441    0.0089 C   0  0  0  0  0  0  0  0  0  0  0  0
    1.4651   -0.0635    0.0317 C   0  0  0  0  0  0  0  0  0  0  0  0
    0.8297   -1.3168    0.0086 C   0  0  0  0  0  0  0  0  0  0  0  0
   -0.5510   -1.4129   -0.0375 C   0  0  0  0  0  0  0  0  0  0  0  0
   -2.4596    3.5665   -0.0934 H   0  0  0  0  0  0  0  0  0  0  0  0
    1.2443    2.1020    0.0273 H   0  0  0  0  0  0  0  0  0  0  0  0
    2.5505   -0.0132    0.0684 H   0  0  0  0  0  0  0  0  0  0  0  0
    1.4256   -2.2229    0.0273 H   0  0  0  0  0  0  0  0  0  0  0  0
   -1.0677   -2.3679   -0.0560 H   0  0  0  0  0  0  0  0  0  0  0  0
  1  8  2  0  0  0  0
  1  4  1  0  0  0  0
  2  1  1  0  0  0  0
  3  2  1  0  0  0  0
  4  5  2  0  0  0  0
  5 10  1  0  0  0  0
  5  6  1  0  0  0  0
  6 11  1  0  0  0  0
  7 12  1  0  0  0  0
  7  6  2  0  0  0  0
  8  7  1  0  0  0  0
 13  8  1  0  0  0  0
M  RAD  4   2   2   3   3   4   2   9   2
M  END
