Coordinates from ORCA-job PhN2+_B3LYPG-6-31G_dp-d09-49-n800
 OpenBabel11261919563D

 13 12  0  0  0  0  0  0  0  0999 V2000
   -1.2768   -0.1926   -0.0598 C   0  0  0  0  0  0  0  0  0  0  0  0
   -2.6506   -0.2266   -0.1053 N   0  0  0  0  0  0  0  0  0  0  0  0
   -3.7642   -0.2559   -0.1421 N   0  0  0  0  0  0  0  0  0  0  0  0
   -0.6275    1.0383   -0.0365 C   0  0  0  0  0  0  0  0  0  0  0  0
    0.7329    1.1445    0.0089 C   0  0  0  0  0  0  0  0  0  0  0  0
    1.4650   -0.0631    0.0317 C   0  0  0  0  0  0  0  0  0  0  0  0
    0.8295   -1.3164    0.0086 C   0  0  0  0  0  0  0  0  0  0  0  0
   -0.5513   -1.4126   -0.0375 C   0  0  0  0  0  0  0  0  0  0  0  0
   -2.4573    3.5620   -0.0934 H   0  0  0  0  0  0  0  0  0  0  0  0
    1.2439    2.1025    0.0273 H   0  0  0  0  0  0  0  0  0  0  0  0
    2.5504   -0.0129    0.0684 H   0  0  0  0  0  0  0  0  0  0  0  0
    1.4253   -2.2225    0.0273 H   0  0  0  0  0  0  0  0  0  0  0  0
   -1.0679   -2.3676   -0.0560 H   0  0  0  0  0  0  0  0  0  0  0  0
  1  8  2  0  0  0  0
  1  4  1  0  0  0  0
  2  1  1  0  0  0  0
  3  2  1  0  0  0  0
  4  5  2  0  0  0  0
  5 10  1  0  0  0  0
  5  6  1  0  0  0  0
  6 11  1  0  0  0  0
  7 12  1  0  0  0  0
  7  6  2  0  0  0  0
  8  7  1  0  0  0  0
 13  8  1  0  0  0  0
M  RAD  4   2   2   3   3   4   2   9   2
M  END
