Coordinates from ORCA-job PhN2+_B3LYPG-6-31G_dp-d09-49-n800
 OpenBabel11261919563D

 13 12  0  0  0  0  0  0  0  0999 V2000
   -1.2507   -0.3701   -0.0601 C   0  0  0  0  0  0  0  0  0  0  0  0
   -2.6252   -0.4722   -0.1059 N   0  0  0  0  0  0  0  0  0  0  0  0
   -3.7368   -0.5498   -0.1430 N   0  0  0  0  0  0  0  0  0  0  0  0
   -0.6744    0.8955   -0.0398 C   0  0  0  0  0  0  0  0  0  0  0  0
    0.6842    1.0526    0.0061 C   0  0  0  0  0  0  0  0  0  0  0  0
    1.4746   -0.1168    0.0320 C   0  0  0  0  0  0  0  0  0  0  0  0
    0.8994   -1.3999    0.0115 C   0  0  0  0  0  0  0  0  0  0  0  0
   -0.4743   -1.5594   -0.0349 C   0  0  0  0  0  0  0  0  0  0  0  0
   -2.7505    5.0947   -0.0971 H   0  0  0  0  0  0  0  0  0  0  0  0
    1.1586    2.0308    0.0228 H   0  0  0  0  0  0  0  0  0  0  0  0
    2.5567   -0.0149    0.0690 H   0  0  0  0  0  0  0  0  0  0  0  0
    1.5377   -2.2766    0.0325 H   0  0  0  0  0  0  0  0  0  0  0  0
   -0.9478   -2.5369   -0.0516 H   0  0  0  0  0  0  0  0  0  0  0  0
  1  4  2  0  0  0  0
  1  8  1  0  0  0  0
  2  1  1  0  0  0  0
  3  2  1  0  0  0  0
  4  5  1  0  0  0  0
  5 10  1  0  0  0  0
  5  6  2  0  0  0  0
  6 11  1  0  0  0  0
  7  6  1  0  0  0  0
  7 12  1  0  0  0  0
  8  7  2  0  0  0  0
 13  8  1  0  0  0  0
M  RAD  4   2   2   3   3   4   2   9   2
M  END
