Coordinates from ORCA-job PhN2+_B3LYPG-6-31G_dp-d09-49-n800
 OpenBabel11261919563D

 13 12  0  0  0  0  0  0  0  0999 V2000
   -1.3327   -0.1193   -0.0615 C   0  0  0  0  0  0  0  0  0  0  0  0
   -2.7035   -0.1721   -0.1069 N   0  0  0  0  0  0  0  0  0  0  0  0
   -3.8170   -0.2163   -0.1436 N   0  0  0  0  0  0  0  0  0  0  0  0
   -0.7084    1.1349   -0.0390 C   0  0  0  0  0  0  0  0  0  0  0  0
    0.6627    1.2247    0.0068 C   0  0  0  0  0  0  0  0  0  0  0  0
    1.4037    0.0291    0.0298 C   0  0  0  0  0  0  0  0  0  0  0  0
    0.7800   -1.2291    0.0070 C   0  0  0  0  0  0  0  0  0  0  0  0
   -0.6014   -1.3303   -0.0391 C   0  0  0  0  0  0  0  0  0  0  0  0
   -1.7491    2.6046   -0.0713 H   0  0  0  0  0  0  0  0  0  0  0  0
    1.1604    2.1873    0.0248 H   0  0  0  0  0  0  0  0  0  0  0  0
    2.4880    0.0842    0.0664 H   0  0  0  0  0  0  0  0  0  0  0  0
    1.3796   -2.1324    0.0257 H   0  0  0  0  0  0  0  0  0  0  0  0
   -1.1108   -2.2881   -0.0574 H   0  0  0  0  0  0  0  0  0  0  0  0
  1  8  2  0  0  0  0
  1  4  1  0  0  0  0
  2  1  1  0  0  0  0
  3  2  1  0  0  0  0
  4  5  2  0  0  0  0
  5 10  1  0  0  0  0
  5  6  1  0  0  0  0
  6 11  1  0  0  0  0
  7 12  1  0  0  0  0
  7  6  2  0  0  0  0
  8  7  1  0  0  0  0
 13  8  1  0  0  0  0
M  RAD  4   2   2   3   3   4   2   9   2
M  END
