Coordinates from ORCA-job PhN2+_B3LYPG-6-31G_dp-d09-49-n800
 OpenBabel11261919563D

 13 12  0  0  0  0  0  0  0  0999 V2000
   -1.2998   -0.1632   -0.0605 C   0  0  0  0  0  0  0  0  0  0  0  0
   -2.6718   -0.1981   -0.1058 N   0  0  0  0  0  0  0  0  0  0  0  0
   -3.7854   -0.2280   -0.1425 N   0  0  0  0  0  0  0  0  0  0  0  0
   -0.6519    1.0707   -0.0372 C   0  0  0  0  0  0  0  0  0  0  0  0
    0.7095    1.1784    0.0083 C   0  0  0  0  0  0  0  0  0  0  0  0
    1.4424   -0.0274    0.0310 C   0  0  0  0  0  0  0  0  0  0  0  0
    0.8097   -1.2817    0.0079 C   0  0  0  0  0  0  0  0  0  0  0  0
   -0.5716   -1.3799   -0.0382 C   0  0  0  0  0  0  0  0  0  0  0  0
   -2.1928    3.1670   -0.0853 H   0  0  0  0  0  0  0  0  0  0  0  0
    1.2148    2.1384    0.0265 H   0  0  0  0  0  0  0  0  0  0  0  0
    2.5276    0.0238    0.0676 H   0  0  0  0  0  0  0  0  0  0  0  0
    1.4065   -2.1870    0.0265 H   0  0  0  0  0  0  0  0  0  0  0  0
   -1.0858   -2.3359   -0.0567 H   0  0  0  0  0  0  0  0  0  0  0  0
  1  8  2  0  0  0  0
  1  4  1  0  0  0  0
  2  1  1  0  0  0  0
  3  2  1  0  0  0  0
  4  5  2  0  0  0  0
  5 10  1  0  0  0  0
  5  6  1  0  0  0  0
  6 11  1  0  0  0  0
  7 12  1  0  0  0  0
  7  6  2  0  0  0  0
  8  7  1  0  0  0  0
 13  8  1  0  0  0  0
M  RAD  4   2   2   3   3   4   2   9   2
M  END
