Coordinates from ORCA-job PhN2+_B3LYPG-6-31G_dp-d09-49-n800
 OpenBabel11261919553D

 13 13  0  0  0  0  0  0  0  0999 V2000
   -1.3546   -0.0753   -0.0618 C   0  0  0  0  0  0  0  0  0  0  0  0
   -2.7273   -0.1506   -0.1071 N   0  0  0  0  0  0  0  0  0  0  0  0
   -3.8406   -0.2113   -0.1460 N   0  0  0  0  0  0  0  0  0  0  0  0
   -0.7625    1.2053   -0.0403 C   0  0  0  0  0  0  0  0  0  0  0  0
    0.6218    1.2588    0.0055 C   0  0  0  0  0  0  0  0  0  0  0  0
    1.3734    0.0744    0.0286 C   0  0  0  0  0  0  0  0  0  0  0  0
    0.7559   -1.1852    0.0062 C   0  0  0  0  0  0  0  0  0  0  0  0
   -0.6262   -1.2840   -0.0394 C   0  0  0  0  0  0  0  0  0  0  0  0
   -1.3848    2.1185   -0.0594 H   0  0  0  0  0  0  0  0  0  0  0  0
    1.1191    2.2224    0.0233 H   0  0  0  0  0  0  0  0  0  0  0  0
    2.4570    0.1342    0.0649 H   0  0  0  0  0  0  0  0  0  0  0  0
    1.3554   -2.0887    0.0248 H   0  0  0  0  0  0  0  0  0  0  0  0
   -1.1351   -2.2414   -0.0575 H   0  0  0  0  0  0  0  0  0  0  0  0
  1  4  2  0  0  0  0
  1  8  1  0  0  0  0
  2  1  1  0  0  0  0
  3  2  1  0  0  0  0
  4  5  1  0  0  0  0
  5 10  1  0  0  0  0
  5  6  2  0  0  0  0
  6 11  1  0  0  0  0
  7 12  1  0  0  0  0
  7  6  1  0  0  0  0
  8  7  2  0  0  0  0
  9  4  1  0  0  0  0
 13  8  1  0  0  0  0
M  RAD  2   2   2   3   3
M  END
