Coordinates from ORCA-job PhN2+_B3LYPG-6-31G_dp-d09-49-n800
 OpenBabel11261919563D

 13 12  0  0  0  0  0  0  0  0999 V2000
   -1.3014   -0.1614   -0.0605 C   0  0  0  0  0  0  0  0  0  0  0  0
   -2.6733   -0.1966   -0.1059 N   0  0  0  0  0  0  0  0  0  0  0  0
   -3.7868   -0.2269   -0.1426 N   0  0  0  0  0  0  0  0  0  0  0  0
   -0.6540    1.0730   -0.0373 C   0  0  0  0  0  0  0  0  0  0  0  0
    0.7076    1.1806    0.0082 C   0  0  0  0  0  0  0  0  0  0  0  0
    1.4408   -0.0249    0.0309 C   0  0  0  0  0  0  0  0  0  0  0  0
    0.8083   -1.2794    0.0079 C   0  0  0  0  0  0  0  0  0  0  0  0
   -0.5729   -1.3778   -0.0382 C   0  0  0  0  0  0  0  0  0  0  0  0
   -2.1735    3.1416   -0.0847 H   0  0  0  0  0  0  0  0  0  0  0  0
    1.2124    2.1408    0.0264 H   0  0  0  0  0  0  0  0  0  0  0  0
    2.5258    0.0265    0.0676 H   0  0  0  0  0  0  0  0  0  0  0  0
    1.4054   -2.1845    0.0265 H   0  0  0  0  0  0  0  0  0  0  0  0
   -1.0868   -2.3339   -0.0567 H   0  0  0  0  0  0  0  0  0  0  0  0
  1  8  2  0  0  0  0
  1  4  1  0  0  0  0
  2  1  1  0  0  0  0
  3  2  1  0  0  0  0
  4  5  2  0  0  0  0
  5 10  1  0  0  0  0
  5  6  1  0  0  0  0
  6 11  1  0  0  0  0
  7 12  1  0  0  0  0
  7  6  2  0  0  0  0
  8  7  1  0  0  0  0
 13  8  1  0  0  0  0
M  RAD  4   2   2   3   3   4   2   9   2
M  END
