Coordinates from ORCA-job PhN2+_B3LYPG-6-31G_dp-d09-49-n800
 OpenBabel11261919563D

 13 12  0  0  0  0  0  0  0  0999 V2000
   -1.2551   -0.2513   -0.0595 C   0  0  0  0  0  0  0  0  0  0  0  0
   -2.6306   -0.3014   -0.1052 N   0  0  0  0  0  0  0  0  0  0  0  0
   -3.7442   -0.3416   -0.1422 N   0  0  0  0  0  0  0  0  0  0  0  0
   -0.6242    0.9885   -0.0372 C   0  0  0  0  0  0  0  0  0  0  0  0
    0.7373    1.1001    0.0085 C   0  0  0  0  0  0  0  0  0  0  0  0
    1.4818   -0.0998    0.0322 C   0  0  0  0  0  0  0  0  0  0  0  0
    0.8580   -1.3593    0.0099 C   0  0  0  0  0  0  0  0  0  0  0  0
   -0.5212   -1.4671   -0.0364 C   0  0  0  0  0  0  0  0  0  0  0  0
   -2.6939    4.1732   -0.0986 H   0  0  0  0  0  0  0  0  0  0  0  0
    1.2450    2.0609    0.0265 H   0  0  0  0  0  0  0  0  0  0  0  0
    2.5668   -0.0390    0.0691 H   0  0  0  0  0  0  0  0  0  0  0  0
    1.4623   -2.2598    0.0292 H   0  0  0  0  0  0  0  0  0  0  0  0
   -1.0306   -2.4263   -0.0545 H   0  0  0  0  0  0  0  0  0  0  0  0
  1  4  2  0  0  0  0
  1  8  1  0  0  0  0
  2  1  1  0  0  0  0
  3  2  1  0  0  0  0
  4  5  1  0  0  0  0
  5 10  1  0  0  0  0
  5  6  2  0  0  0  0
  6 11  1  0  0  0  0
  7 12  1  0  0  0  0
  7  6  1  0  0  0  0
  8  7  2  0  0  0  0
 13  8  1  0  0  0  0
M  RAD  4   2   2   3   3   4   2   9   2
M  END
