Coordinates from ORCA-job PhN2+_B3LYPG-6-31G_dp-d09-49-n800
 OpenBabel11261919553D

 13 13  0  0  0  0  0  0  0  0999 V2000
   -1.3423   -0.1014   -0.0618 C   0  0  0  0  0  0  0  0  0  0  0  0
   -2.7136   -0.1643   -0.1071 N   0  0  0  0  0  0  0  0  0  0  0  0
   -3.8270   -0.2160   -0.1440 N   0  0  0  0  0  0  0  0  0  0  0  0
   -0.7317    1.1643   -0.0397 C   0  0  0  0  0  0  0  0  0  0  0  0
    0.6453    1.2391    0.0063 C   0  0  0  0  0  0  0  0  0  0  0  0
    1.3905    0.0483    0.0293 C   0  0  0  0  0  0  0  0  0  0  0  0
    0.7697   -1.2108    0.0067 C   0  0  0  0  0  0  0  0  0  0  0  0
   -0.6119   -1.3112   -0.0394 C   0  0  0  0  0  0  0  0  0  0  0  0
   -1.5933    2.4050   -0.0665 H   0  0  0  0  0  0  0  0  0  0  0  0
    1.1427    2.2019    0.0243 H   0  0  0  0  0  0  0  0  0  0  0  0
    2.4744    0.1051    0.0659 H   0  0  0  0  0  0  0  0  0  0  0  0
    1.3694   -2.1140    0.0254 H   0  0  0  0  0  0  0  0  0  0  0  0
   -1.1208   -2.2690   -0.0577 H   0  0  0  0  0  0  0  0  0  0  0  0
  1  4  2  0  0  0  0
  1  8  1  0  0  0  0
  2  1  1  0  0  0  0
  3  2  1  0  0  0  0
  4  5  1  0  0  0  0
  5 10  1  0  0  0  0
  5  6  2  0  0  0  0
  6 11  1  0  0  0  0
  7 12  1  0  0  0  0
  7  6  1  0  0  0  0
  8  7  2  0  0  0  0
  9  4  1  0  0  0  0
 13  8  1  0  0  0  0
M  RAD  2   2   2   3   3
M  END
