Coordinates from ORCA-job PhN2+_B3LYPG-6-31G_dp-d09-49-n800
 OpenBabel11261919563D

 13 12  0  0  0  0  0  0  0  0999 V2000
   -1.2816   -0.1852   -0.0600 C   0  0  0  0  0  0  0  0  0  0  0  0
   -2.6549   -0.2186   -0.1054 N   0  0  0  0  0  0  0  0  0  0  0  0
   -3.7686   -0.2472   -0.1421 N   0  0  0  0  0  0  0  0  0  0  0  0
   -0.6316    1.0458   -0.0366 C   0  0  0  0  0  0  0  0  0  0  0  0
    0.7290    1.1522    0.0089 C   0  0  0  0  0  0  0  0  0  0  0  0
    1.4605   -0.0556    0.0316 C   0  0  0  0  0  0  0  0  0  0  0  0
    0.8250   -1.3088    0.0085 C   0  0  0  0  0  0  0  0  0  0  0  0
   -0.5559   -1.4048   -0.0377 C   0  0  0  0  0  0  0  0  0  0  0  0
   -2.4036    3.4692   -0.0918 H   0  0  0  0  0  0  0  0  0  0  0  0
    1.2392    2.1103    0.0273 H   0  0  0  0  0  0  0  0  0  0  0  0
    2.5459   -0.0056    0.0683 H   0  0  0  0  0  0  0  0  0  0  0  0
    1.4207   -2.2149    0.0271 H   0  0  0  0  0  0  0  0  0  0  0  0
   -1.0725   -2.3598   -0.0563 H   0  0  0  0  0  0  0  0  0  0  0  0
  1  8  2  0  0  0  0
  1  4  1  0  0  0  0
  2  1  1  0  0  0  0
  3  2  1  0  0  0  0
  4  5  2  0  0  0  0
  5 10  1  0  0  0  0
  5  6  1  0  0  0  0
  6 11  1  0  0  0  0
  7 12  1  0  0  0  0
  7  6  2  0  0  0  0
  8  7  1  0  0  0  0
 13  8  1  0  0  0  0
M  RAD  4   2   2   3   3   4   2   9   2
M  END
