Coordinates from ORCA-job PhN2+_B3LYPG-6-31G_dp-d09-49-n800
 OpenBabel11261919553D

 13 13  0  0  0  0  0  0  0  0999 V2000
   -1.3572   -0.0700   -0.0616 C   0  0  0  0  0  0  0  0  0  0  0  0
   -2.7303   -0.1469   -0.1068 N   0  0  0  0  0  0  0  0  0  0  0  0
   -3.8435   -0.2086   -0.1472 N   0  0  0  0  0  0  0  0  0  0  0  0
   -0.7683    1.2128   -0.0402 C   0  0  0  0  0  0  0  0  0  0  0  0
    0.6170    1.2632    0.0053 C   0  0  0  0  0  0  0  0  0  0  0  0
    1.3700    0.0799    0.0283 C   0  0  0  0  0  0  0  0  0  0  0  0
    0.7531   -1.1797    0.0061 C   0  0  0  0  0  0  0  0  0  0  0  0
   -0.6292   -1.2784   -0.0393 C   0  0  0  0  0  0  0  0  0  0  0  0
   -1.3421    2.0562   -0.0577 H   0  0  0  0  0  0  0  0  0  0  0  0
    1.1139    2.2272    0.0231 H   0  0  0  0  0  0  0  0  0  0  0  0
    2.4535    0.1404    0.0644 H   0  0  0  0  0  0  0  0  0  0  0  0
    1.3526   -2.0832    0.0245 H   0  0  0  0  0  0  0  0  0  0  0  0
   -1.1380   -2.2359   -0.0572 H   0  0  0  0  0  0  0  0  0  0  0  0
  1  4  2  0  0  0  0
  1  8  1  0  0  0  0
  2  1  1  0  0  0  0
  3  2  1  0  0  0  0
  4  5  1  0  0  0  0
  5 10  1  0  0  0  0
  5  6  2  0  0  0  0
  6 11  1  0  0  0  0
  7 12  1  0  0  0  0
  7  6  1  0  0  0  0
  8  7  2  0  0  0  0
  9  4  1  0  0  0  0
 13  8  1  0  0  0  0
M  RAD  2   2   2   3   3
M  END
