Coordinates from ORCA-job PhN2+_B3LYPG-6-31G_dp-d09-49-n800
 OpenBabel11261919563D

 13 12  0  0  0  0  0  0  0  0999 V2000
   -1.2498   -0.3176   -0.0599 C   0  0  0  0  0  0  0  0  0  0  0  0
   -2.6253   -0.3951   -0.1058 N   0  0  0  0  0  0  0  0  0  0  0  0
   -3.7380   -0.4547   -0.1430 N   0  0  0  0  0  0  0  0  0  0  0  0
   -0.6483    0.9366   -0.0389 C   0  0  0  0  0  0  0  0  0  0  0  0
    0.7124    1.0704    0.0070 C   0  0  0  0  0  0  0  0  0  0  0  0
    1.4810   -0.1138    0.0322 C   0  0  0  0  0  0  0  0  0  0  0  0
    0.8823   -1.3858    0.0111 C   0  0  0  0  0  0  0  0  0  0  0  0
   -0.4942   -1.5202   -0.0354 C   0  0  0  0  0  0  0  0  0  0  0  0
   -2.7562    4.7119   -0.0979 H   0  0  0  0  0  0  0  0  0  0  0  0
    1.2038    2.0400    0.0241 H   0  0  0  0  0  0  0  0  0  0  0  0
    2.5647   -0.0316    0.0692 H   0  0  0  0  0  0  0  0  0  0  0  0
    1.5043   -2.2741    0.0315 H   0  0  0  0  0  0  0  0  0  0  0  0
   -0.9852   -2.4890   -0.0525 H   0  0  0  0  0  0  0  0  0  0  0  0
  1  4  2  0  0  0  0
  1  8  1  0  0  0  0
  2  1  1  0  0  0  0
  3  2  1  0  0  0  0
  4  5  1  0  0  0  0
  5 10  1  0  0  0  0
  5  6  2  0  0  0  0
  6 11  1  0  0  0  0
  7 12  1  0  0  0  0
  7  6  1  0  0  0  0
  8  7  2  0  0  0  0
 13  8  1  0  0  0  0
M  RAD  4   2   2   3   3   4   2   9   2
M  END
