Coordinates from ORCA-job PhN2+_B3LYPG-6-31G_dp-d09-49-n800
 OpenBabel11261919563D

 13 12  0  0  0  0  0  0  0  0999 V2000
   -1.3090   -0.1525   -0.0608 C   0  0  0  0  0  0  0  0  0  0  0  0
   -2.6804   -0.1902   -0.1061 N   0  0  0  0  0  0  0  0  0  0  0  0
   -3.7940   -0.2225   -0.1428 N   0  0  0  0  0  0  0  0  0  0  0  0
   -0.6648    1.0847   -0.0376 C   0  0  0  0  0  0  0  0  0  0  0  0
    0.6980    1.1912    0.0079 C   0  0  0  0  0  0  0  0  0  0  0  0
    1.4325   -0.0126    0.0307 C   0  0  0  0  0  0  0  0  0  0  0  0
    0.8019   -1.2680    0.0077 C   0  0  0  0  0  0  0  0  0  0  0  0
   -0.5794   -1.3675   -0.0384 C   0  0  0  0  0  0  0  0  0  0  0  0
   -2.0792    3.0193   -0.0817 H   0  0  0  0  0  0  0  0  0  0  0  0
    1.2006    2.1522    0.0261 H   0  0  0  0  0  0  0  0  0  0  0  0
    2.5174    0.0396    0.0673 H   0  0  0  0  0  0  0  0  0  0  0  0
    1.3997   -2.1725    0.0263 H   0  0  0  0  0  0  0  0  0  0  0  0
   -1.0920   -2.3242   -0.0569 H   0  0  0  0  0  0  0  0  0  0  0  0
  1  8  2  0  0  0  0
  1  4  1  0  0  0  0
  2  1  1  0  0  0  0
  3  2  1  0  0  0  0
  4  5  2  0  0  0  0
  5 10  1  0  0  0  0
  5  6  1  0  0  0  0
  6 11  1  0  0  0  0
  7 12  1  0  0  0  0
  7  6  2  0  0  0  0
  8  7  1  0  0  0  0
 13  8  1  0  0  0  0
M  RAD  4   2   2   3   3   4   2   9   2
M  END
