Coordinates from ORCA-job PhN2+_B3LYPG-6-31G_dp-d09-49-n800
 OpenBabel11261919563D

 13 12  0  0  0  0  0  0  0  0999 V2000
   -1.2986   -0.1645   -0.0605 C   0  0  0  0  0  0  0  0  0  0  0  0
   -2.6707   -0.1991   -0.1058 N   0  0  0  0  0  0  0  0  0  0  0  0
   -3.7843   -0.2289   -0.1425 N   0  0  0  0  0  0  0  0  0  0  0  0
   -0.6505    1.0691   -0.0372 C   0  0  0  0  0  0  0  0  0  0  0  0
    0.7109    1.1768    0.0083 C   0  0  0  0  0  0  0  0  0  0  0  0
    1.4436   -0.0292    0.0310 C   0  0  0  0  0  0  0  0  0  0  0  0
    0.8106   -1.2834    0.0080 C   0  0  0  0  0  0  0  0  0  0  0  0
   -0.5706   -1.3814   -0.0381 C   0  0  0  0  0  0  0  0  0  0  0  0
   -2.2065    3.1853   -0.0857 H   0  0  0  0  0  0  0  0  0  0  0  0
    1.2165    2.1367    0.0265 H   0  0  0  0  0  0  0  0  0  0  0  0
    2.5288    0.0219    0.0677 H   0  0  0  0  0  0  0  0  0  0  0  0
    1.4074   -2.1888    0.0266 H   0  0  0  0  0  0  0  0  0  0  0  0
   -1.0850   -2.3373   -0.0566 H   0  0  0  0  0  0  0  0  0  0  0  0
  1  8  2  0  0  0  0
  1  4  1  0  0  0  0
  2  1  1  0  0  0  0
  3  2  1  0  0  0  0
  4  5  2  0  0  0  0
  5 10  1  0  0  0  0
  5  6  1  0  0  0  0
  6 11  1  0  0  0  0
  7 12  1  0  0  0  0
  7  6  2  0  0  0  0
  8  7  1  0  0  0  0
 13  8  1  0  0  0  0
M  RAD  4   2   2   3   3   4   2   9   2
M  END
