Coordinates from ORCA-job PhN2+_B3LYPG-6-31G_dp-d09-49-n800
 OpenBabel11261919563D

 13 12  0  0  0  0  0  0  0  0999 V2000
   -1.2951   -0.1678   -0.0603 C   0  0  0  0  0  0  0  0  0  0  0  0
   -2.6675   -0.2013   -0.1057 N   0  0  0  0  0  0  0  0  0  0  0  0
   -3.7811   -0.2299   -0.1424 N   0  0  0  0  0  0  0  0  0  0  0  0
   -0.6458    1.0647   -0.0370 C   0  0  0  0  0  0  0  0  0  0  0  0
    0.7152    1.1723    0.0084 C   0  0  0  0  0  0  0  0  0  0  0  0
    1.4472   -0.0344    0.0311 C   0  0  0  0  0  0  0  0  0  0  0  0
    0.8132   -1.2882    0.0080 C   0  0  0  0  0  0  0  0  0  0  0  0
   -0.5680   -1.3855   -0.0381 C   0  0  0  0  0  0  0  0  0  0  0  0
   -2.2476    3.2342   -0.0870 H   0  0  0  0  0  0  0  0  0  0  0  0
    1.2220    2.1318    0.0267 H   0  0  0  0  0  0  0  0  0  0  0  0
    2.5324    0.0161    0.0678 H   0  0  0  0  0  0  0  0  0  0  0  0
    1.4095   -2.1938    0.0266 H   0  0  0  0  0  0  0  0  0  0  0  0
   -1.0830   -2.3411   -0.0566 H   0  0  0  0  0  0  0  0  0  0  0  0
  1  8  2  0  0  0  0
  1  4  1  0  0  0  0
  2  1  1  0  0  0  0
  3  2  1  0  0  0  0
  4  5  2  0  0  0  0
  5 10  1  0  0  0  0
  5  6  1  0  0  0  0
  6 11  1  0  0  0  0
  7 12  1  0  0  0  0
  7  6  2  0  0  0  0
  8  7  1  0  0  0  0
 13  8  1  0  0  0  0
M  RAD  4   2   2   3   3   4   2   9   2
M  END
