Coordinates from ORCA-job PhN2+_B3LYPG-6-31G_dp-d09-49-n800
 OpenBabel11261919563D

 13 12  0  0  0  0  0  0  0  0999 V2000
   -1.2504   -0.2950   -0.0598 C   0  0  0  0  0  0  0  0  0  0  0  0
   -2.6261   -0.3625   -0.1056 N   0  0  0  0  0  0  0  0  0  0  0  0
   -3.7392   -0.4148   -0.1425 N   0  0  0  0  0  0  0  0  0  0  0  0
   -0.6383    0.9541   -0.0382 C   0  0  0  0  0  0  0  0  0  0  0  0
    0.7228    1.0792    0.0076 C   0  0  0  0  0  0  0  0  0  0  0  0
    1.4825   -0.1108    0.0322 C   0  0  0  0  0  0  0  0  0  0  0  0
    0.8745   -1.3783    0.0106 C   0  0  0  0  0  0  0  0  0  0  0  0
   -0.5030   -1.5027   -0.0358 C   0  0  0  0  0  0  0  0  0  0  0  0
   -2.7477    4.5381   -0.0986 H   0  0  0  0  0  0  0  0  0  0  0  0
    1.2206    2.0454    0.0250 H   0  0  0  0  0  0  0  0  0  0  0  0
    2.5668   -0.0366    0.0692 H   0  0  0  0  0  0  0  0  0  0  0  0
    1.4900   -2.2712    0.0307 H   0  0  0  0  0  0  0  0  0  0  0  0
   -1.0010   -2.4679   -0.0533 H   0  0  0  0  0  0  0  0  0  0  0  0
  1  4  2  0  0  0  0
  1  8  1  0  0  0  0
  2  1  1  0  0  0  0
  3  2  1  0  0  0  0
  4  5  1  0  0  0  0
  5 10  1  0  0  0  0
  5  6  2  0  0  0  0
  6 11  1  0  0  0  0
  7 12  1  0  0  0  0
  7  6  1  0  0  0  0
  8  7  2  0  0  0  0
 13  8  1  0  0  0  0
M  RAD  4   2   2   3   3   4   2   9   2
M  END
