Coordinates from ORCA-job PhN2+_B3LYPG-6-31G_dp-d09-49-n800
 OpenBabel11261919553D

 13 13  0  0  0  0  0  0  0  0999 V2000
   -1.3517   -0.0814   -0.0619 C   0  0  0  0  0  0  0  0  0  0  0  0
   -2.7241   -0.1543   -0.1072 N   0  0  0  0  0  0  0  0  0  0  0  0
   -3.8373   -0.2134   -0.1452 N   0  0  0  0  0  0  0  0  0  0  0  0
   -0.7557    1.1962   -0.0402 C   0  0  0  0  0  0  0  0  0  0  0  0
    0.6272    1.2540    0.0056 C   0  0  0  0  0  0  0  0  0  0  0  0
    1.3773    0.0682    0.0288 C   0  0  0  0  0  0  0  0  0  0  0  0
    0.7591   -1.1913    0.0063 C   0  0  0  0  0  0  0  0  0  0  0  0
   -0.6228   -1.2903   -0.0395 C   0  0  0  0  0  0  0  0  0  0  0  0
   -1.4329    2.1871   -0.0612 H   0  0  0  0  0  0  0  0  0  0  0  0
    1.1247    2.2173    0.0236 H   0  0  0  0  0  0  0  0  0  0  0  0
    2.4609    0.1273    0.0652 H   0  0  0  0  0  0  0  0  0  0  0  0
    1.3586   -2.0947    0.0250 H   0  0  0  0  0  0  0  0  0  0  0  0
   -1.1318   -2.2478   -0.0577 H   0  0  0  0  0  0  0  0  0  0  0  0
  1  4  2  0  0  0  0
  1  8  1  0  0  0  0
  2  1  1  0  0  0  0
  3  2  1  0  0  0  0
  4  5  1  0  0  0  0
  5 10  1  0  0  0  0
  5  6  2  0  0  0  0
  6 11  1  0  0  0  0
  7 12  1  0  0  0  0
  7  6  1  0  0  0  0
  8  7  2  0  0  0  0
  9  4  1  0  0  0  0
 13  8  1  0  0  0  0
M  RAD  2   2   2   3   3
M  END
