Coordinates from ORCA-job PhN2+_B3LYPG-6-31G_dp-d09-49-n800
 OpenBabel11261919553D

 13 12  0  0  0  0  0  0  0  0999 V2000
   -1.3415   -0.1030   -0.0618 C   0  0  0  0  0  0  0  0  0  0  0  0
   -2.7127   -0.1650   -0.1071 N   0  0  0  0  0  0  0  0  0  0  0  0
   -3.8262   -0.2161   -0.1440 N   0  0  0  0  0  0  0  0  0  0  0  0
   -0.7297    1.1617   -0.0396 C   0  0  0  0  0  0  0  0  0  0  0  0
    0.6468    1.2379    0.0063 C   0  0  0  0  0  0  0  0  0  0  0  0
    1.3916    0.0467    0.0294 C   0  0  0  0  0  0  0  0  0  0  0  0
    0.7706   -1.2123    0.0067 C   0  0  0  0  0  0  0  0  0  0  0  0
   -0.6110   -1.3129   -0.0394 C   0  0  0  0  0  0  0  0  0  0  0  0
   -1.6065    2.4222   -0.0670 H   0  0  0  0  0  0  0  0  0  0  0  0
    1.1441    2.2007    0.0243 H   0  0  0  0  0  0  0  0  0  0  0  0
    2.4755    0.1033    0.0660 H   0  0  0  0  0  0  0  0  0  0  0  0
    1.3703   -2.1155    0.0254 H   0  0  0  0  0  0  0  0  0  0  0  0
   -1.1199   -2.2707   -0.0577 H   0  0  0  0  0  0  0  0  0  0  0  0
  1  4  2  0  0  0  0
  1  8  1  0  0  0  0
  2  1  1  0  0  0  0
  3  2  1  0  0  0  0
  4  5  1  0  0  0  0
  5 10  1  0  0  0  0
  5  6  2  0  0  0  0
  6 11  1  0  0  0  0
  7 12  1  0  0  0  0
  7  6  1  0  0  0  0
  8  7  2  0  0  0  0
 13  8  1  0  0  0  0
M  RAD  4   2   2   3   3   4   2   9   2
M  END
