Coordinates from ORCA-job PhN2+_B3LYPG-6-31G_dp-d09-49-n800
 OpenBabel11261919563D

 13 12  0  0  0  0  0  0  0  0999 V2000
   -1.3064   -0.1556   -0.0607 C   0  0  0  0  0  0  0  0  0  0  0  0
   -2.6779   -0.1924   -0.1060 N   0  0  0  0  0  0  0  0  0  0  0  0
   -3.7915   -0.2239   -0.1427 N   0  0  0  0  0  0  0  0  0  0  0  0
   -0.6609    1.0805   -0.0375 C   0  0  0  0  0  0  0  0  0  0  0  0
    0.7014    1.1875    0.0080 C   0  0  0  0  0  0  0  0  0  0  0  0
    1.4354   -0.0169    0.0308 C   0  0  0  0  0  0  0  0  0  0  0  0
    0.8042   -1.2720    0.0078 C   0  0  0  0  0  0  0  0  0  0  0  0
   -0.5771   -1.3711   -0.0383 C   0  0  0  0  0  0  0  0  0  0  0  0
   -2.1126    3.0622   -0.0828 H   0  0  0  0  0  0  0  0  0  0  0  0
    1.2048    2.1482    0.0262 H   0  0  0  0  0  0  0  0  0  0  0  0
    2.5204    0.0350    0.0674 H   0  0  0  0  0  0  0  0  0  0  0  0
    1.4017   -2.1768    0.0264 H   0  0  0  0  0  0  0  0  0  0  0  0
   -1.0902   -2.3276   -0.0568 H   0  0  0  0  0  0  0  0  0  0  0  0
  1  8  2  0  0  0  0
  1  4  1  0  0  0  0
  2  1  1  0  0  0  0
  3  2  1  0  0  0  0
  4  5  2  0  0  0  0
  5 10  1  0  0  0  0
  5  6  1  0  0  0  0
  6 11  1  0  0  0  0
  7 12  1  0  0  0  0
  7  6  2  0  0  0  0
  8  7  1  0  0  0  0
 13  8  1  0  0  0  0
M  RAD  4   2   2   3   3   4   2   9   2
M  END
