Coordinates from ORCA-job PhN2+_B3LYPG-6-31G_dp-d09-49-n800
 OpenBabel11261919553D

 13 13  0  0  0  0  0  0  0  0999 V2000
   -1.3556   -0.0731   -0.0617 C   0  0  0  0  0  0  0  0  0  0  0  0
   -2.7286   -0.1491   -0.1070 N   0  0  0  0  0  0  0  0  0  0  0  0
   -3.8417   -0.2103   -0.1464 N   0  0  0  0  0  0  0  0  0  0  0  0
   -0.7650    1.2085   -0.0403 C   0  0  0  0  0  0  0  0  0  0  0  0
    0.6198    1.2606    0.0054 C   0  0  0  0  0  0  0  0  0  0  0  0
    1.3720    0.0767    0.0285 C   0  0  0  0  0  0  0  0  0  0  0  0
    0.7548   -1.1829    0.0062 C   0  0  0  0  0  0  0  0  0  0  0  0
   -0.6274   -1.2817   -0.0394 C   0  0  0  0  0  0  0  0  0  0  0  0
   -1.3672    2.0930   -0.0588 H   0  0  0  0  0  0  0  0  0  0  0  0
    1.1170    2.2243    0.0232 H   0  0  0  0  0  0  0  0  0  0  0  0
    2.4555    0.1367    0.0647 H   0  0  0  0  0  0  0  0  0  0  0  0
    1.3542   -2.0864    0.0247 H   0  0  0  0  0  0  0  0  0  0  0  0
   -1.1363   -2.2391   -0.0574 H   0  0  0  0  0  0  0  0  0  0  0  0
  1  4  2  0  0  0  0
  1  8  1  0  0  0  0
  2  1  1  0  0  0  0
  3  2  1  0  0  0  0
  4  5  1  0  0  0  0
  5 10  1  0  0  0  0
  5  6  2  0  0  0  0
  6 11  1  0  0  0  0
  7 12  1  0  0  0  0
  7  6  1  0  0  0  0
  8  7  2  0  0  0  0
  9  4  1  0  0  0  0
 13  8  1  0  0  0  0
M  RAD  2   2   2   3   3
M  END
