Coordinates from ORCA-job PhN2+_B3LYPG-6-31G_dp-d09-49-n800
 OpenBabel11261919553D

 13 13  0  0  0  0  0  0  0  0999 V2000
   -1.3579   -0.0685   -0.0615 C   0  0  0  0  0  0  0  0  0  0  0  0
   -2.7312   -0.1457   -0.1067 N   0  0  0  0  0  0  0  0  0  0  0  0
   -3.8443   -0.2077   -0.1477 N   0  0  0  0  0  0  0  0  0  0  0  0
   -0.7700    1.2149   -0.0401 C   0  0  0  0  0  0  0  0  0  0  0  0
    0.6156    1.2645    0.0052 C   0  0  0  0  0  0  0  0  0  0  0  0
    1.3690    0.0816    0.0282 C   0  0  0  0  0  0  0  0  0  0  0  0
    0.7523   -1.1780    0.0061 C   0  0  0  0  0  0  0  0  0  0  0  0
   -0.6301   -1.2768   -0.0392 C   0  0  0  0  0  0  0  0  0  0  0  0
   -1.3295    2.0376   -0.0572 H   0  0  0  0  0  0  0  0  0  0  0  0
    1.1123    2.2287    0.0230 H   0  0  0  0  0  0  0  0  0  0  0  0
    2.4525    0.1423    0.0642 H   0  0  0  0  0  0  0  0  0  0  0  0
    1.3518   -2.0815    0.0244 H   0  0  0  0  0  0  0  0  0  0  0  0
   -1.1389   -2.2342   -0.0570 H   0  0  0  0  0  0  0  0  0  0  0  0
  1  4  2  0  0  0  0
  1  8  1  0  0  0  0
  2  1  1  0  0  0  0
  3  2  1  0  0  0  0
  4  5  1  0  0  0  0
  5 10  1  0  0  0  0
  5  6  2  0  0  0  0
  6 11  1  0  0  0  0
  7 12  1  0  0  0  0
  7  6  1  0  0  0  0
  8  7  2  0  0  0  0
  9  4  1  0  0  0  0
 13  8  1  0  0  0  0
M  RAD  2   2   2   3   3
M  END
