Coordinates from ORCA-job PhN2+_B3LYPG-6-31G_dp-d09-49-n800
 OpenBabel11261919563D

 13 12  0  0  0  0  0  0  0  0999 V2000
   -1.3212   -0.1368   -0.0612 C   0  0  0  0  0  0  0  0  0  0  0  0
   -2.6921   -0.1807   -0.1065 N   0  0  0  0  0  0  0  0  0  0  0  0
   -3.8056   -0.2180   -0.1432 N   0  0  0  0  0  0  0  0  0  0  0  0
   -0.6850    1.1073   -0.0383 C   0  0  0  0  0  0  0  0  0  0  0  0
    0.6810    1.2083    0.0073 C   0  0  0  0  0  0  0  0  0  0  0  0
    1.4183    0.0081    0.0302 C   0  0  0  0  0  0  0  0  0  0  0  0
    0.7911   -1.2488    0.0074 C   0  0  0  0  0  0  0  0  0  0  0  0
   -0.5902   -1.3497   -0.0387 C   0  0  0  0  0  0  0  0  0  0  0  0
   -1.9174    2.8152   -0.0765 H   0  0  0  0  0  0  0  0  0  0  0  0
    1.1805    2.1703    0.0254 H   0  0  0  0  0  0  0  0  0  0  0  0
    2.5030    0.0617    0.0669 H   0  0  0  0  0  0  0  0  0  0  0  0
    1.3901   -2.1526    0.0261 H   0  0  0  0  0  0  0  0  0  0  0  0
   -1.1009   -2.3071   -0.0571 H   0  0  0  0  0  0  0  0  0  0  0  0
  1  8  2  0  0  0  0
  1  4  1  0  0  0  0
  2  1  1  0  0  0  0
  3  2  1  0  0  0  0
  4  5  2  0  0  0  0
  5 10  1  0  0  0  0
  5  6  1  0  0  0  0
  6 11  1  0  0  0  0
  7 12  1  0  0  0  0
  7  6  2  0  0  0  0
  8  7  1  0  0  0  0
 13  8  1  0  0  0  0
M  RAD  4   2   2   3   3   4   2   9   2
M  END
