Coordinates from ORCA-job PhN2+_B3LYPG-6-31G_dp-d09-49-n800
 OpenBabel11261919553D

 13 12  0  0  0  0  0  0  0  0999 V2000
   -1.3411   -0.1039   -0.0617 C   0  0  0  0  0  0  0  0  0  0  0  0
   -2.7122   -0.1654   -0.1071 N   0  0  0  0  0  0  0  0  0  0  0  0
   -3.8256   -0.2161   -0.1439 N   0  0  0  0  0  0  0  0  0  0  0  0
   -0.7285    1.1601   -0.0396 C   0  0  0  0  0  0  0  0  0  0  0  0
    0.6477    1.2371    0.0063 C   0  0  0  0  0  0  0  0  0  0  0  0
    1.3922    0.0457    0.0294 C   0  0  0  0  0  0  0  0  0  0  0  0
    0.7711   -1.2133    0.0067 C   0  0  0  0  0  0  0  0  0  0  0  0
   -0.6104   -1.3139   -0.0393 C   0  0  0  0  0  0  0  0  0  0  0  0
   -1.6145    2.4326   -0.0672 H   0  0  0  0  0  0  0  0  0  0  0  0
    1.1450    2.2000    0.0243 H   0  0  0  0  0  0  0  0  0  0  0  0
    2.4762    0.1023    0.0660 H   0  0  0  0  0  0  0  0  0  0  0  0
    1.3709   -2.1165    0.0254 H   0  0  0  0  0  0  0  0  0  0  0  0
   -1.1193   -2.2717   -0.0576 H   0  0  0  0  0  0  0  0  0  0  0  0
  1  4  2  0  0  0  0
  1  8  1  0  0  0  0
  2  1  1  0  0  0  0
  3  2  1  0  0  0  0
  4  5  1  0  0  0  0
  5 10  1  0  0  0  0
  5  6  2  0  0  0  0
  6 11  1  0  0  0  0
  7 12  1  0  0  0  0
  7  6  1  0  0  0  0
  8  7  2  0  0  0  0
 13  8  1  0  0  0  0
M  RAD  4   2   2   3   3   4   2   9   2
M  END
