Coordinates from ORCA-job PhN2+_B3LYPG-6-31G_dp-d09-49-n800
 OpenBabel11261919563D

 13 12  0  0  0  0  0  0  0  0999 V2000
   -1.2525   -0.3919   -0.0603 C   0  0  0  0  0  0  0  0  0  0  0  0
   -2.6261   -0.5057   -0.1060 N   0  0  0  0  0  0  0  0  0  0  0  0
   -3.7371   -0.5919   -0.1430 N   0  0  0  0  0  0  0  0  0  0  0  0
   -0.6875    0.8787   -0.0403 C   0  0  0  0  0  0  0  0  0  0  0  0
    0.6699    1.0467    0.0056 C   0  0  0  0  0  0  0  0  0  0  0  0
    1.4703   -0.1157    0.0319 C   0  0  0  0  0  0  0  0  0  0  0  0
    0.9060   -1.4037    0.0117 C   0  0  0  0  0  0  0  0  0  0  0  0
   -0.4663   -1.5749   -0.0348 C   0  0  0  0  0  0  0  0  0  0  0  0
   -2.7331    5.2426   -0.0962 H   0  0  0  0  0  0  0  0  0  0  0  0
    1.1363    2.0288    0.0220 H   0  0  0  0  0  0  0  0  0  0  0  0
    2.5515   -0.0047    0.0690 H   0  0  0  0  0  0  0  0  0  0  0  0
    1.5517   -2.2749    0.0330 H   0  0  0  0  0  0  0  0  0  0  0  0
   -0.9315   -2.5563   -0.0512 H   0  0  0  0  0  0  0  0  0  0  0  0
  1  4  2  0  0  0  0
  1  8  1  0  0  0  0
  2  1  1  0  0  0  0
  3  2  1  0  0  0  0
  4  5  1  0  0  0  0
  5 10  1  0  0  0  0
  5  6  2  0  0  0  0
  6 11  1  0  0  0  0
  7  6  1  0  0  0  0
  7 12  1  0  0  0  0
  8  7  2  0  0  0  0
 13  8  1  0  0  0  0
M  RAD  4   2   2   3   3   4   2   9   2
M  END
