Coordinates from ORCA-job PhN2+_B3LYPG-6-31G_dp-d09-49-n800
 OpenBabel11261919563D

 13 12  0  0  0  0  0  0  0  0999 V2000
   -1.2510   -0.2845   -0.0597 C   0  0  0  0  0  0  0  0  0  0  0  0
   -2.6268   -0.3473   -0.1054 N   0  0  0  0  0  0  0  0  0  0  0  0
   -3.7400   -0.3965   -0.1427 N   0  0  0  0  0  0  0  0  0  0  0  0
   -0.6339    0.9619   -0.0379 C   0  0  0  0  0  0  0  0  0  0  0  0
    0.7271    1.0837    0.0078 C   0  0  0  0  0  0  0  0  0  0  0  0
    1.4829   -0.1089    0.0322 C   0  0  0  0  0  0  0  0  0  0  0  0
    0.8707   -1.3744    0.0105 C   0  0  0  0  0  0  0  0  0  0  0  0
   -0.5072   -1.4945   -0.0359 C   0  0  0  0  0  0  0  0  0  0  0  0
   -2.7403    4.4544   -0.0986 H   0  0  0  0  0  0  0  0  0  0  0  0
    1.2274    2.0485    0.0253 H   0  0  0  0  0  0  0  0  0  0  0  0
    2.5674   -0.0382    0.0691 H   0  0  0  0  0  0  0  0  0  0  0  0
    1.4833   -2.2692    0.0304 H   0  0  0  0  0  0  0  0  0  0  0  0
   -1.0082   -2.4581   -0.0535 H   0  0  0  0  0  0  0  0  0  0  0  0
  1  4  2  0  0  0  0
  1  8  1  0  0  0  0
  2  1  1  0  0  0  0
  3  2  1  0  0  0  0
  4  5  1  0  0  0  0
  5 10  1  0  0  0  0
  5  6  2  0  0  0  0
  6 11  1  0  0  0  0
  7 12  1  0  0  0  0
  7  6  1  0  0  0  0
  8  7  2  0  0  0  0
 13  8  1  0  0  0  0
M  RAD  4   2   2   3   3   4   2   9   2
M  END
