Coordinates from ORCA-job PhN2+_B3LYPG-6-31G_dp-d09-49-n800
 OpenBabel11261919563D

 13 12  0  0  0  0  0  0  0  0999 V2000
   -1.3310   -0.1223   -0.0615 C   0  0  0  0  0  0  0  0  0  0  0  0
   -2.7017   -0.1735   -0.1068 N   0  0  0  0  0  0  0  0  0  0  0  0
   -3.8152   -0.2165   -0.1435 N   0  0  0  0  0  0  0  0  0  0  0  0
   -0.7045    1.1301   -0.0389 C   0  0  0  0  0  0  0  0  0  0  0  0
    0.6657    1.2221    0.0069 C   0  0  0  0  0  0  0  0  0  0  0  0
    1.4061    0.0257    0.0298 C   0  0  0  0  0  0  0  0  0  0  0  0
    0.7818   -1.2323    0.0071 C   0  0  0  0  0  0  0  0  0  0  0  0
   -0.5996   -1.3336   -0.0390 C   0  0  0  0  0  0  0  0  0  0  0  0
   -1.7764    2.6390   -0.0721 H   0  0  0  0  0  0  0  0  0  0  0  0
    1.1636    2.1847    0.0249 H   0  0  0  0  0  0  0  0  0  0  0  0
    2.4904    0.0806    0.0665 H   0  0  0  0  0  0  0  0  0  0  0  0
    1.3813   -2.1356    0.0258 H   0  0  0  0  0  0  0  0  0  0  0  0
   -1.1091   -2.2913   -0.0574 H   0  0  0  0  0  0  0  0  0  0  0  0
  1  8  2  0  0  0  0
  1  4  1  0  0  0  0
  2  1  1  0  0  0  0
  3  2  1  0  0  0  0
  4  5  2  0  0  0  0
  5 10  1  0  0  0  0
  5  6  1  0  0  0  0
  6 11  1  0  0  0  0
  7 12  1  0  0  0  0
  7  6  2  0  0  0  0
  8  7  1  0  0  0  0
 13  8  1  0  0  0  0
M  RAD  4   2   2   3   3   4   2   9   2
M  END
