Coordinates from ORCA-job PhN2+_B3LYPG-6-31G_dp-d09-49-n800
 OpenBabel11261919563D

 13 12  0  0  0  0  0  0  0  0999 V2000
   -1.2505   -0.3590   -0.0602 C   0  0  0  0  0  0  0  0  0  0  0  0
   -2.6252   -0.4559   -0.1057 N   0  0  0  0  0  0  0  0  0  0  0  0
   -3.7371   -0.5296   -0.1428 N   0  0  0  0  0  0  0  0  0  0  0  0
   -0.6687    0.9043   -0.0397 C   0  0  0  0  0  0  0  0  0  0  0  0
    0.6905    1.0563    0.0063 C   0  0  0  0  0  0  0  0  0  0  0  0
    1.4762   -0.1164    0.0321 C   0  0  0  0  0  0  0  0  0  0  0  0
    0.8958   -1.3971    0.0114 C   0  0  0  0  0  0  0  0  0  0  0  0
   -0.4785   -1.5513   -0.0351 C   0  0  0  0  0  0  0  0  0  0  0  0
   -2.7531    5.0153   -0.0973 H   0  0  0  0  0  0  0  0  0  0  0  0
    1.1686    2.0326    0.0230 H   0  0  0  0  0  0  0  0  0  0  0  0
    2.5586   -0.0188    0.0692 H   0  0  0  0  0  0  0  0  0  0  0  0
    1.5307   -2.2763    0.0323 H   0  0  0  0  0  0  0  0  0  0  0  0
   -0.9557   -2.5270   -0.0519 H   0  0  0  0  0  0  0  0  0  0  0  0
  1  4  2  0  0  0  0
  1  8  1  0  0  0  0
  2  1  1  0  0  0  0
  3  2  1  0  0  0  0
  4  5  1  0  0  0  0
  5 10  1  0  0  0  0
  5  6  2  0  0  0  0
  6 11  1  0  0  0  0
  7  6  1  0  0  0  0
  7 12  1  0  0  0  0
  8  7  2  0  0  0  0
 13  8  1  0  0  0  0
M  RAD  4   2   2   3   3   4   2   9   2
M  END
