Coordinates from ORCA-job PhN2+_B3LYPG-6-31G_dp-d09-49-n800
 OpenBabel11261919563D

 13 12  0  0  0  0  0  0  0  0999 V2000
   -1.2522   -0.3879   -0.0602 C   0  0  0  0  0  0  0  0  0  0  0  0
   -2.6260   -0.4998   -0.1060 N   0  0  0  0  0  0  0  0  0  0  0  0
   -3.7371   -0.5850   -0.1426 N   0  0  0  0  0  0  0  0  0  0  0  0
   -0.6854    0.8823   -0.0401 C   0  0  0  0  0  0  0  0  0  0  0  0
    0.6725    1.0478    0.0058 C   0  0  0  0  0  0  0  0  0  0  0  0
    1.4710   -0.1160    0.0320 C   0  0  0  0  0  0  0  0  0  0  0  0
    0.9047   -1.4030    0.0116 C   0  0  0  0  0  0  0  0  0  0  0  0
   -0.4678   -1.5720   -0.0349 C   0  0  0  0  0  0  0  0  0  0  0  0
   -2.7360    5.2161   -0.0966 H   0  0  0  0  0  0  0  0  0  0  0  0
    1.1405    2.0291    0.0223 H   0  0  0  0  0  0  0  0  0  0  0  0
    2.5524   -0.0066    0.0690 H   0  0  0  0  0  0  0  0  0  0  0  0
    1.5491   -2.2752    0.0328 H   0  0  0  0  0  0  0  0  0  0  0  0
   -0.9344   -2.5528   -0.0514 H   0  0  0  0  0  0  0  0  0  0  0  0
  1  4  2  0  0  0  0
  1  8  1  0  0  0  0
  2  1  1  0  0  0  0
  3  2  1  0  0  0  0
  4  5  1  0  0  0  0
  5 10  1  0  0  0  0
  5  6  2  0  0  0  0
  6 11  1  0  0  0  0
  7  6  1  0  0  0  0
  7 12  1  0  0  0  0
  8  7  2  0  0  0  0
 13  8  1  0  0  0  0
M  RAD  4   2   2   3   3   4   2   9   2
M  END
