Coordinates from ORCA-job PhN2+_B3LYPG-6-31G_dp-d09-49-n800
 OpenBabel11261919563D

 13 12  0  0  0  0  0  0  0  0999 V2000
   -1.2805   -0.1873   -0.0600 C   0  0  0  0  0  0  0  0  0  0  0  0
   -2.6539   -0.2209   -0.1055 N   0  0  0  0  0  0  0  0  0  0  0  0
   -3.7676   -0.2498   -0.1419 N   0  0  0  0  0  0  0  0  0  0  0  0
   -0.6307    1.0438   -0.0366 C   0  0  0  0  0  0  0  0  0  0  0  0
    0.7299    1.1502    0.0089 C   0  0  0  0  0  0  0  0  0  0  0  0
    1.4616   -0.0575    0.0317 C   0  0  0  0  0  0  0  0  0  0  0  0
    0.8262   -1.3107    0.0085 C   0  0  0  0  0  0  0  0  0  0  0  0
   -0.5547   -1.4068   -0.0377 C   0  0  0  0  0  0  0  0  0  0  0  0
   -2.4170    3.4939   -0.0923 H   0  0  0  0  0  0  0  0  0  0  0  0
    1.2403    2.1084    0.0273 H   0  0  0  0  0  0  0  0  0  0  0  0
    2.5470   -0.0074    0.0684 H   0  0  0  0  0  0  0  0  0  0  0  0
    1.4219   -2.2168    0.0271 H   0  0  0  0  0  0  0  0  0  0  0  0
   -1.0712   -2.3619   -0.0563 H   0  0  0  0  0  0  0  0  0  0  0  0
  1  8  2  0  0  0  0
  1  4  1  0  0  0  0
  2  1  1  0  0  0  0
  3  2  1  0  0  0  0
  4  5  2  0  0  0  0
  5 10  1  0  0  0  0
  5  6  1  0  0  0  0
  6 11  1  0  0  0  0
  7 12  1  0  0  0  0
  7  6  2  0  0  0  0
  8  7  1  0  0  0  0
 13  8  1  0  0  0  0
M  RAD  4   2   2   3   3   4   2   9   2
M  END
