Coordinates from ORCA-job PhN2+_B3LYPG-6-31G_dp-d09-49-n800
 OpenBabel11261919563D

 13 12  0  0  0  0  0  0  0  0999 V2000
   -1.2663   -0.2133   -0.0595 C   0  0  0  0  0  0  0  0  0  0  0  0
   -2.6410   -0.2515   -0.1049 N   0  0  0  0  0  0  0  0  0  0  0  0
   -3.7547   -0.2835   -0.1425 N   0  0  0  0  0  0  0  0  0  0  0  0
   -0.6216    1.0197   -0.0365 C   0  0  0  0  0  0  0  0  0  0  0  0
    0.7394    1.1259    0.0089 C   0  0  0  0  0  0  0  0  0  0  0  0
    1.4742   -0.0802    0.0319 C   0  0  0  0  0  0  0  0  0  0  0  0
    0.8408   -1.3347    0.0091 C   0  0  0  0  0  0  0  0  0  0  0  0
   -0.5395   -1.4331   -0.0370 C   0  0  0  0  0  0  0  0  0  0  0  0
   -2.5738    3.8004   -0.0962 H   0  0  0  0  0  0  0  0  0  0  0  0
    1.2511    2.0840    0.0272 H   0  0  0  0  0  0  0  0  0  0  0  0
    2.5596   -0.0279    0.0686 H   0  0  0  0  0  0  0  0  0  0  0  0
    1.4383   -2.2397    0.0279 H   0  0  0  0  0  0  0  0  0  0  0  0
   -1.0550   -2.3889   -0.0554 H   0  0  0  0  0  0  0  0  0  0  0  0
  1  8  2  0  0  0  0
  1  4  1  0  0  0  0
  2  1  1  0  0  0  0
  3  2  1  0  0  0  0
  4  5  2  0  0  0  0
  5 10  1  0  0  0  0
  5  6  1  0  0  0  0
  6 11  1  0  0  0  0
  7 12  1  0  0  0  0
  7  6  2  0  0  0  0
  8  7  1  0  0  0  0
 13  8  1  0  0  0  0
M  RAD  4   2   2   3   3   4   2   9   2
M  END
