Coordinates from ORCA-job PhN2+_B3LYPG-6-31G_dp-d09-49-n800
 OpenBabel11261919563D

 13 12  0  0  0  0  0  0  0  0999 V2000
   -1.2500   -0.3421   -0.0600 C   0  0  0  0  0  0  0  0  0  0  0  0
   -2.6250   -0.4310   -0.1059 N   0  0  0  0  0  0  0  0  0  0  0  0
   -3.7373   -0.4988   -0.1431 N   0  0  0  0  0  0  0  0  0  0  0  0
   -0.6602    0.9177   -0.0393 C   0  0  0  0  0  0  0  0  0  0  0  0
    0.6997    1.0618    0.0065 C   0  0  0  0  0  0  0  0  0  0  0  0
    1.4783   -0.1156    0.0321 C   0  0  0  0  0  0  0  0  0  0  0  0
    0.8904   -1.3928    0.0113 C   0  0  0  0  0  0  0  0  0  0  0  0
   -0.4849   -1.5387   -0.0351 C   0  0  0  0  0  0  0  0  0  0  0  0
   -2.7564    4.8930   -0.0974 H   0  0  0  0  0  0  0  0  0  0  0  0
    1.1835    2.0353    0.0234 H   0  0  0  0  0  0  0  0  0  0  0  0
    2.5613   -0.0244    0.0691 H   0  0  0  0  0  0  0  0  0  0  0  0
    1.5199   -2.2758    0.0321 H   0  0  0  0  0  0  0  0  0  0  0  0
   -0.9679   -2.5115   -0.0520 H   0  0  0  0  0  0  0  0  0  0  0  0
  1  4  2  0  0  0  0
  1  8  1  0  0  0  0
  2  1  1  0  0  0  0
  3  2  1  0  0  0  0
  4  5  1  0  0  0  0
  5 10  1  0  0  0  0
  5  6  2  0  0  0  0
  6 11  1  0  0  0  0
  7 12  1  0  0  0  0
  7  6  1  0  0  0  0
  8  7  2  0  0  0  0
 13  8  1  0  0  0  0
M  RAD  4   2   2   3   3   4   2   9   2
M  END
