Coordinates from ORCA-job PhN2+_B3LYPG-6-31G_dp-d09-49-n800
 OpenBabel11261919553D

 13 13  0  0  0  0  0  0  0  0999 V2000
   -1.3526   -0.0794   -0.0619 C   0  0  0  0  0  0  0  0  0  0  0  0
   -2.7251   -0.1532   -0.1072 N   0  0  0  0  0  0  0  0  0  0  0  0
   -3.8384   -0.2128   -0.1454 N   0  0  0  0  0  0  0  0  0  0  0  0
   -0.7579    1.1992   -0.0403 C   0  0  0  0  0  0  0  0  0  0  0  0
    0.6255    1.2555    0.0056 C   0  0  0  0  0  0  0  0  0  0  0  0
    1.3760    0.0702    0.0287 C   0  0  0  0  0  0  0  0  0  0  0  0
    0.7581   -1.1894    0.0063 C   0  0  0  0  0  0  0  0  0  0  0  0
   -0.6239   -1.2883   -0.0395 C   0  0  0  0  0  0  0  0  0  0  0  0
   -1.4177    2.1656   -0.0606 H   0  0  0  0  0  0  0  0  0  0  0  0
    1.1230    2.2189    0.0235 H   0  0  0  0  0  0  0  0  0  0  0  0
    2.4597    0.1294    0.0651 H   0  0  0  0  0  0  0  0  0  0  0  0
    1.3576   -2.0928    0.0249 H   0  0  0  0  0  0  0  0  0  0  0  0
   -1.1329   -2.2458   -0.0576 H   0  0  0  0  0  0  0  0  0  0  0  0
  1  4  2  0  0  0  0
  1  8  1  0  0  0  0
  2  1  1  0  0  0  0
  3  2  1  0  0  0  0
  4  5  1  0  0  0  0
  5 10  1  0  0  0  0
  5  6  2  0  0  0  0
  6 11  1  0  0  0  0
  7 12  1  0  0  0  0
  7  6  1  0  0  0  0
  8  7  2  0  0  0  0
  9  4  1  0  0  0  0
 13  8  1  0  0  0  0
M  RAD  2   2   2   3   3
M  END
