Coordinates from ORCA-job PhN2+_B3LYPG-6-31G_dp-d09-49-n800
 OpenBabel11261919563D

 13 12  0  0  0  0  0  0  0  0999 V2000
   -1.2523   -0.3896   -0.0602 C   0  0  0  0  0  0  0  0  0  0  0  0
   -2.6260   -0.5022   -0.1059 N   0  0  0  0  0  0  0  0  0  0  0  0
   -3.7371   -0.5880   -0.1429 N   0  0  0  0  0  0  0  0  0  0  0  0
   -0.6863    0.8810   -0.0401 C   0  0  0  0  0  0  0  0  0  0  0  0
    0.6715    1.0474    0.0057 C   0  0  0  0  0  0  0  0  0  0  0  0
    1.4707   -0.1159    0.0319 C   0  0  0  0  0  0  0  0  0  0  0  0
    0.9052   -1.4033    0.0117 C   0  0  0  0  0  0  0  0  0  0  0  0
   -0.4672   -1.5731   -0.0348 C   0  0  0  0  0  0  0  0  0  0  0  0
   -2.7348    5.2270   -0.0964 H   0  0  0  0  0  0  0  0  0  0  0  0
    1.1388    2.0290    0.0222 H   0  0  0  0  0  0  0  0  0  0  0  0
    2.5520   -0.0058    0.0690 H   0  0  0  0  0  0  0  0  0  0  0  0
    1.5501   -2.2751    0.0329 H   0  0  0  0  0  0  0  0  0  0  0  0
   -0.9332   -2.5542   -0.0513 H   0  0  0  0  0  0  0  0  0  0  0  0
  1  4  2  0  0  0  0
  1  8  1  0  0  0  0
  2  1  1  0  0  0  0
  3  2  1  0  0  0  0
  4  5  1  0  0  0  0
  5 10  1  0  0  0  0
  5  6  2  0  0  0  0
  6 11  1  0  0  0  0
  7  6  1  0  0  0  0
  7 12  1  0  0  0  0
  8  7  2  0  0  0  0
 13  8  1  0  0  0  0
M  RAD  4   2   2   3   3   4   2   9   2
M  END
