Coordinates from ORCA-job PhN2+_B3LYPG-6-31G_dp-d09-49-n800
 OpenBabel11261919563D

 13 12  0  0  0  0  0  0  0  0999 V2000
   -1.3198   -0.1388   -0.0611 C   0  0  0  0  0  0  0  0  0  0  0  0
   -2.6907   -0.1817   -0.1065 N   0  0  0  0  0  0  0  0  0  0  0  0
   -3.8042   -0.2183   -0.1432 N   0  0  0  0  0  0  0  0  0  0  0  0
   -0.6825    1.1044   -0.0382 C   0  0  0  0  0  0  0  0  0  0  0  0
    0.6831    1.2063    0.0074 C   0  0  0  0  0  0  0  0  0  0  0  0
    1.4201    0.0056    0.0303 C   0  0  0  0  0  0  0  0  0  0  0  0
    0.7924   -1.2511    0.0074 C   0  0  0  0  0  0  0  0  0  0  0  0
   -0.5889   -1.3519   -0.0387 C   0  0  0  0  0  0  0  0  0  0  0  0
   -1.9370    2.8396   -0.0772 H   0  0  0  0  0  0  0  0  0  0  0  0
    1.1829    2.1682    0.0255 H   0  0  0  0  0  0  0  0  0  0  0  0
    2.5047    0.0590    0.0669 H   0  0  0  0  0  0  0  0  0  0  0  0
    1.3912   -2.1549    0.0261 H   0  0  0  0  0  0  0  0  0  0  0  0
   -1.0998   -2.3092   -0.0571 H   0  0  0  0  0  0  0  0  0  0  0  0
  1  8  2  0  0  0  0
  1  4  1  0  0  0  0
  2  1  1  0  0  0  0
  3  2  1  0  0  0  0
  4  5  2  0  0  0  0
  5 10  1  0  0  0  0
  5  6  1  0  0  0  0
  6 11  1  0  0  0  0
  7 12  1  0  0  0  0
  7  6  2  0  0  0  0
  8  7  1  0  0  0  0
 13  8  1  0  0  0  0
M  RAD  4   2   2   3   3   4   2   9   2
M  END
