Coordinates from ORCA-job PhN2+_B3LYPG-6-31G_dp-d09-49-n800
 OpenBabel11261919553D

 13 12  0  0  0  0  0  0  0  0999 V2000
   -1.3378   -0.1102   -0.0617 C   0  0  0  0  0  0  0  0  0  0  0  0
   -2.7087   -0.1681   -0.1070 N   0  0  0  0  0  0  0  0  0  0  0  0
   -3.8222   -0.2162   -0.1438 N   0  0  0  0  0  0  0  0  0  0  0  0
   -0.7204    1.1498   -0.0393 C   0  0  0  0  0  0  0  0  0  0  0  0
    0.6537    1.2322    0.0065 C   0  0  0  0  0  0  0  0  0  0  0  0
    1.3968    0.0392    0.0295 C   0  0  0  0  0  0  0  0  0  0  0  0
    0.7746   -1.2196    0.0068 C   0  0  0  0  0  0  0  0  0  0  0  0
   -0.6069   -1.3205   -0.0392 C   0  0  0  0  0  0  0  0  0  0  0  0
   -1.6679    2.5015   -0.0688 H   0  0  0  0  0  0  0  0  0  0  0  0
    1.1510    2.1950    0.0245 H   0  0  0  0  0  0  0  0  0  0  0  0
    2.4809    0.0951    0.0661 H   0  0  0  0  0  0  0  0  0  0  0  0
    1.3744   -2.1228    0.0255 H   0  0  0  0  0  0  0  0  0  0  0  0
   -1.1159   -2.2784   -0.0576 H   0  0  0  0  0  0  0  0  0  0  0  0
  1  4  2  0  0  0  0
  1  8  1  0  0  0  0
  2  1  1  0  0  0  0
  3  2  1  0  0  0  0
  4  5  1  0  0  0  0
  5 10  1  0  0  0  0
  5  6  2  0  0  0  0
  6 11  1  0  0  0  0
  7 12  1  0  0  0  0
  7  6  1  0  0  0  0
  8  7  2  0  0  0  0
 13  8  1  0  0  0  0
M  RAD  4   2   2   3   3   4   2   9   2
M  END
