Coordinates from ORCA-job PhN2+_B3LYPG-6-31G_dp-d09-49-n800
 OpenBabel11261919553D

 13 13  0  0  0  0  0  0  0  0999 V2000
   -1.3437   -0.0985   -0.0618 C   0  0  0  0  0  0  0  0  0  0  0  0
   -2.7151   -0.1630   -0.1071 N   0  0  0  0  0  0  0  0  0  0  0  0
   -3.8285   -0.2159   -0.1441 N   0  0  0  0  0  0  0  0  0  0  0  0
   -0.7353    1.1690   -0.0398 C   0  0  0  0  0  0  0  0  0  0  0  0
    0.6426    1.2412    0.0062 C   0  0  0  0  0  0  0  0  0  0  0  0
    1.3885    0.0512    0.0293 C   0  0  0  0  0  0  0  0  0  0  0  0
    0.7681   -1.2080    0.0066 C   0  0  0  0  0  0  0  0  0  0  0  0
   -0.6135   -1.3082   -0.0394 C   0  0  0  0  0  0  0  0  0  0  0  0
   -1.5696    2.3738   -0.0658 H   0  0  0  0  0  0  0  0  0  0  0  0
    1.1400    2.2041    0.0242 H   0  0  0  0  0  0  0  0  0  0  0  0
    2.4724    0.1083    0.0658 H   0  0  0  0  0  0  0  0  0  0  0  0
    1.3679   -2.1112    0.0253 H   0  0  0  0  0  0  0  0  0  0  0  0
   -1.1224   -2.2659   -0.0577 H   0  0  0  0  0  0  0  0  0  0  0  0
  1  4  2  0  0  0  0
  1  8  1  0  0  0  0
  2  1  1  0  0  0  0
  3  2  1  0  0  0  0
  4  5  1  0  0  0  0
  5 10  1  0  0  0  0
  5  6  2  0  0  0  0
  6 11  1  0  0  0  0
  7 12  1  0  0  0  0
  7  6  1  0  0  0  0
  8  7  2  0  0  0  0
  9  4  1  0  0  0  0
 13  8  1  0  0  0  0
M  RAD  2   2   2   3   3
M  END
