Coordinates from ORCA-job PhN2+_B3LYPG-6-31G_dp-d09-49-n800
 OpenBabel11261919563D

 13 12  0  0  0  0  0  0  0  0999 V2000
   -1.2877   -0.1767   -0.0602 C   0  0  0  0  0  0  0  0  0  0  0  0
   -2.6605   -0.2099   -0.1055 N   0  0  0  0  0  0  0  0  0  0  0  0
   -3.7742   -0.2385   -0.1422 N   0  0  0  0  0  0  0  0  0  0  0  0
   -0.6374    1.0546   -0.0368 C   0  0  0  0  0  0  0  0  0  0  0  0
    0.7232    1.1615    0.0087 C   0  0  0  0  0  0  0  0  0  0  0  0
    1.4547   -0.0461    0.0314 C   0  0  0  0  0  0  0  0  0  0  0  0
    0.8195   -1.2994    0.0083 C   0  0  0  0  0  0  0  0  0  0  0  0
   -0.5616   -1.3956   -0.0379 C   0  0  0  0  0  0  0  0  0  0  0  0
   -2.3343    3.3593   -0.0897 H   0  0  0  0  0  0  0  0  0  0  0  0
    1.2321    2.1201    0.0271 H   0  0  0  0  0  0  0  0  0  0  0  0
    2.5400    0.0039    0.0681 H   0  0  0  0  0  0  0  0  0  0  0  0
    1.4152   -2.2054    0.0269 H   0  0  0  0  0  0  0  0  0  0  0  0
   -1.0777   -2.3508   -0.0565 H   0  0  0  0  0  0  0  0  0  0  0  0
  1  8  2  0  0  0  0
  1  4  1  0  0  0  0
  2  1  1  0  0  0  0
  3  2  1  0  0  0  0
  4  5  2  0  0  0  0
  5 10  1  0  0  0  0
  5  6  1  0  0  0  0
  6 11  1  0  0  0  0
  7 12  1  0  0  0  0
  7  6  2  0  0  0  0
  8  7  1  0  0  0  0
 13  8  1  0  0  0  0
M  RAD  4   2   2   3   3   4   2   9   2
M  END
