Coordinates from ORCA-job PhN2+_B3LYPG-6-31G_dp-d09-49-n800
 OpenBabel11261919563D

 13 12  0  0  0  0  0  0  0  0999 V2000
   -1.2593   -0.2334   -0.0596 C   0  0  0  0  0  0  0  0  0  0  0  0
   -2.6346   -0.2775   -0.1052 N   0  0  0  0  0  0  0  0  0  0  0  0
   -3.7482   -0.3138   -0.1421 N   0  0  0  0  0  0  0  0  0  0  0  0
   -0.6215    1.0029   -0.0369 C   0  0  0  0  0  0  0  0  0  0  0  0
    0.7397    1.1112    0.0087 C   0  0  0  0  0  0  0  0  0  0  0  0
    1.4792   -0.0920    0.0321 C   0  0  0  0  0  0  0  0  0  0  0  0
    0.8503   -1.3489    0.0095 C   0  0  0  0  0  0  0  0  0  0  0  0
   -0.5294   -1.4515   -0.0367 C   0  0  0  0  0  0  0  0  0  0  0  0
   -2.6480    4.0060   -0.0978 H   0  0  0  0  0  0  0  0  0  0  0  0
    1.2500    2.0704    0.0269 H   0  0  0  0  0  0  0  0  0  0  0  0
    2.5644   -0.0357    0.0689 H   0  0  0  0  0  0  0  0  0  0  0  0
    1.4510   -2.2518    0.0287 H   0  0  0  0  0  0  0  0  0  0  0  0
   -1.0421   -2.4089   -0.0549 H   0  0  0  0  0  0  0  0  0  0  0  0
  1  4  2  0  0  0  0
  1  8  1  0  0  0  0
  2  1  1  0  0  0  0
  3  2  1  0  0  0  0
  4  5  1  0  0  0  0
  5 10  1  0  0  0  0
  5  6  2  0  0  0  0
  6 11  1  0  0  0  0
  7 12  1  0  0  0  0
  7  6  1  0  0  0  0
  8  7  2  0  0  0  0
 13  8  1  0  0  0  0
M  RAD  4   2   2   3   3   4   2   9   2
M  END
