Coordinates from ORCA-job PhN2+_B3LYPG-6-31G_dp-d09-49-n800
 OpenBabel11261919563D

 13 12  0  0  0  0  0  0  0  0999 V2000
   -1.3151   -0.1450   -0.0610 C   0  0  0  0  0  0  0  0  0  0  0  0
   -2.6862   -0.1853   -0.1063 N   0  0  0  0  0  0  0  0  0  0  0  0
   -3.7997   -0.2198   -0.1430 N   0  0  0  0  0  0  0  0  0  0  0  0
   -0.6743    1.0952   -0.0379 C   0  0  0  0  0  0  0  0  0  0  0  0
    0.6899    1.1996    0.0077 C   0  0  0  0  0  0  0  0  0  0  0  0
    1.4257   -0.0026    0.0305 C   0  0  0  0  0  0  0  0  0  0  0  0
    0.7967   -1.2587    0.0075 C   0  0  0  0  0  0  0  0  0  0  0  0
   -0.5846   -1.3590   -0.0386 C   0  0  0  0  0  0  0  0  0  0  0  0
   -2.0011    2.9201   -0.0793 H   0  0  0  0  0  0  0  0  0  0  0  0
    1.1909    2.1611    0.0258 H   0  0  0  0  0  0  0  0  0  0  0  0
    2.5104    0.0503    0.0671 H   0  0  0  0  0  0  0  0  0  0  0  0
    1.3951   -2.1628    0.0262 H   0  0  0  0  0  0  0  0  0  0  0  0
   -1.0963   -2.3160   -0.0570 H   0  0  0  0  0  0  0  0  0  0  0  0
  1  8  2  0  0  0  0
  1  4  1  0  0  0  0
  2  1  1  0  0  0  0
  3  2  1  0  0  0  0
  4  5  2  0  0  0  0
  5 10  1  0  0  0  0
  5  6  1  0  0  0  0
  6 11  1  0  0  0  0
  7 12  1  0  0  0  0
  7  6  2  0  0  0  0
  8  7  1  0  0  0  0
 13  8  1  0  0  0  0
M  RAD  4   2   2   3   3   4   2   9   2
M  END
