Coordinates from ORCA-job PhN2+_B3LYPG-6-31G_dp-d09-49-n800
 OpenBabel11261919563D

 13 12  0  0  0  0  0  0  0  0999 V2000
   -1.3336   -0.1178   -0.0615 C   0  0  0  0  0  0  0  0  0  0  0  0
   -2.7044   -0.1715   -0.1069 N   0  0  0  0  0  0  0  0  0  0  0  0
   -3.8178   -0.2163   -0.1436 N   0  0  0  0  0  0  0  0  0  0  0  0
   -0.7104    1.1373   -0.0391 C   0  0  0  0  0  0  0  0  0  0  0  0
    0.6612    1.2260    0.0067 C   0  0  0  0  0  0  0  0  0  0  0  0
    1.4025    0.0308    0.0297 C   0  0  0  0  0  0  0  0  0  0  0  0
    0.7791   -1.2275    0.0070 C   0  0  0  0  0  0  0  0  0  0  0  0
   -0.6024   -1.3287   -0.0391 C   0  0  0  0  0  0  0  0  0  0  0  0
   -1.7355    2.5874   -0.0709 H   0  0  0  0  0  0  0  0  0  0  0  0
    1.1588    2.1886    0.0247 H   0  0  0  0  0  0  0  0  0  0  0  0
    2.4868    0.0861    0.0663 H   0  0  0  0  0  0  0  0  0  0  0  0
    1.3787   -2.1308    0.0257 H   0  0  0  0  0  0  0  0  0  0  0  0
   -1.1116   -2.2865   -0.0574 H   0  0  0  0  0  0  0  0  0  0  0  0
  1  8  2  0  0  0  0
  1  4  1  0  0  0  0
  2  1  1  0  0  0  0
  3  2  1  0  0  0  0
  4  5  2  0  0  0  0
  5 10  1  0  0  0  0
  5  6  1  0  0  0  0
  6 11  1  0  0  0  0
  7 12  1  0  0  0  0
  7  6  2  0  0  0  0
  8  7  1  0  0  0  0
 13  8  1  0  0  0  0
M  RAD  4   2   2   3   3   4   2   9   2
M  END
