Coordinates from ORCA-job PhN2+_B3LYPG-6-31G_dp-d09-49-n800
 OpenBabel11261919563D

 13 12  0  0  0  0  0  0  0  0999 V2000
   -1.2501   -0.3009   -0.0598 C   0  0  0  0  0  0  0  0  0  0  0  0
   -2.6257   -0.3710   -0.1056 N   0  0  0  0  0  0  0  0  0  0  0  0
   -3.7388   -0.4251   -0.1427 N   0  0  0  0  0  0  0  0  0  0  0  0
   -0.6407    0.9495   -0.0384 C   0  0  0  0  0  0  0  0  0  0  0  0
    0.7203    1.0767    0.0074 C   0  0  0  0  0  0  0  0  0  0  0  0
    1.4823   -0.1118    0.0322 C   0  0  0  0  0  0  0  0  0  0  0  0
    0.8766   -1.3804    0.0108 C   0  0  0  0  0  0  0  0  0  0  0  0
   -0.5006   -1.5074   -0.0357 C   0  0  0  0  0  0  0  0  0  0  0  0
   -2.7514    4.5849   -0.0984 H   0  0  0  0  0  0  0  0  0  0  0  0
    1.2165    2.0438    0.0248 H   0  0  0  0  0  0  0  0  0  0  0  0
    2.5664   -0.0356    0.0692 H   0  0  0  0  0  0  0  0  0  0  0  0
    1.4937   -2.2722    0.0309 H   0  0  0  0  0  0  0  0  0  0  0  0
   -0.9969   -2.4735   -0.0531 H   0  0  0  0  0  0  0  0  0  0  0  0
  1  4  2  0  0  0  0
  1  8  1  0  0  0  0
  2  1  1  0  0  0  0
  3  2  1  0  0  0  0
  4  5  1  0  0  0  0
  5 10  1  0  0  0  0
  5  6  2  0  0  0  0
  6 11  1  0  0  0  0
  7 12  1  0  0  0  0
  7  6  1  0  0  0  0
  8  7  2  0  0  0  0
 13  8  1  0  0  0  0
M  RAD  4   2   2   3   3   4   2   9   2
M  END
