Coordinates from ORCA-job PhN2+_B3LYPG-6-31G_dp-d09-49-n800
 OpenBabel11261919553D

 13 13  0  0  0  0  0  0  0  0999 V2000
   -1.3593   -0.0657   -0.0613 C   0  0  0  0  0  0  0  0  0  0  0  0
   -2.7328   -0.1435   -0.1064 N   0  0  0  0  0  0  0  0  0  0  0  0
   -3.8458   -0.2058   -0.1488 N   0  0  0  0  0  0  0  0  0  0  0  0
   -0.7729    1.2185   -0.0400 C   0  0  0  0  0  0  0  0  0  0  0  0
    0.6130    1.2669    0.0052 C   0  0  0  0  0  0  0  0  0  0  0  0
    1.3672    0.0846    0.0280 C   0  0  0  0  0  0  0  0  0  0  0  0
    0.7508   -1.1751    0.0060 C   0  0  0  0  0  0  0  0  0  0  0  0
   -0.6317   -1.2739   -0.0390 C   0  0  0  0  0  0  0  0  0  0  0  0
   -1.3069    2.0040   -0.0562 H   0  0  0  0  0  0  0  0  0  0  0  0
    1.1093    2.2314    0.0228 H   0  0  0  0  0  0  0  0  0  0  0  0
    2.4507    0.1456    0.0638 H   0  0  0  0  0  0  0  0  0  0  0  0
    1.3503   -2.0785    0.0242 H   0  0  0  0  0  0  0  0  0  0  0  0
   -1.1404   -2.2314   -0.0567 H   0  0  0  0  0  0  0  0  0  0  0  0
  1  4  2  0  0  0  0
  1  8  1  0  0  0  0
  2  1  1  0  0  0  0
  3  2  1  0  0  0  0
  4  5  1  0  0  0  0
  5 10  1  0  0  0  0
  5  6  2  0  0  0  0
  6 11  1  0  0  0  0
  7 12  1  0  0  0  0
  7  6  1  0  0  0  0
  8  7  2  0  0  0  0
  9  4  1  0  0  0  0
 13  8  1  0  0  0  0
M  RAD  2   2   2   3   3
M  END
