Coordinates from ORCA-job PhN2+_B3LYPG-6-31G_dp-d09-49-n800
 OpenBabel11261919563D

 13 12  0  0  0  0  0  0  0  0999 V2000
   -1.2908   -0.1728   -0.0603 C   0  0  0  0  0  0  0  0  0  0  0  0
   -2.6635   -0.2061   -0.1057 N   0  0  0  0  0  0  0  0  0  0  0  0
   -3.7771   -0.2348   -0.1425 N   0  0  0  0  0  0  0  0  0  0  0  0
   -0.6408    1.0589   -0.0369 C   0  0  0  0  0  0  0  0  0  0  0  0
    0.7200    1.1661    0.0086 C   0  0  0  0  0  0  0  0  0  0  0  0
    1.4516   -0.0412    0.0313 C   0  0  0  0  0  0  0  0  0  0  0  0
    0.8168   -1.2946    0.0082 C   0  0  0  0  0  0  0  0  0  0  0  0
   -0.5643   -1.3912   -0.0379 C   0  0  0  0  0  0  0  0  0  0  0  0
   -2.2979    3.3058   -0.0884 H   0  0  0  0  0  0  0  0  0  0  0  0
    1.2280    2.1250    0.0269 H   0  0  0  0  0  0  0  0  0  0  0  0
    2.5369    0.0090    0.0680 H   0  0  0  0  0  0  0  0  0  0  0  0
    1.4127   -2.2006    0.0269 H   0  0  0  0  0  0  0  0  0  0  0  0
   -1.0801   -2.3465   -0.0564 H   0  0  0  0  0  0  0  0  0  0  0  0
  1  8  2  0  0  0  0
  1  4  1  0  0  0  0
  2  1  1  0  0  0  0
  3  2  1  0  0  0  0
  4  5  2  0  0  0  0
  5 10  1  0  0  0  0
  5  6  1  0  0  0  0
  6 11  1  0  0  0  0
  7 12  1  0  0  0  0
  7  6  2  0  0  0  0
  8  7  1  0  0  0  0
 13  8  1  0  0  0  0
M  RAD  4   2   2   3   3   4   2   9   2
M  END
