Coordinates from ORCA-job PhN2+_B3LYPG-6-31G_dp-d09-49-n800
 OpenBabel11261919563D

 13 12  0  0  0  0  0  0  0  0999 V2000
   -1.2510   -0.2839   -0.0597 C   0  0  0  0  0  0  0  0  0  0  0  0
   -2.6268   -0.3467   -0.1055 N   0  0  0  0  0  0  0  0  0  0  0  0
   -3.7400   -0.3957   -0.1424 N   0  0  0  0  0  0  0  0  0  0  0  0
   -0.6340    0.9628   -0.0380 C   0  0  0  0  0  0  0  0  0  0  0  0
    0.7273    1.0839    0.0078 C   0  0  0  0  0  0  0  0  0  0  0  0
    1.4829   -0.1088    0.0323 C   0  0  0  0  0  0  0  0  0  0  0  0
    0.8705   -1.3741    0.0105 C   0  0  0  0  0  0  0  0  0  0  0  0
   -0.5074   -1.4940   -0.0359 C   0  0  0  0  0  0  0  0  0  0  0  0
   -2.7397    4.4498   -0.0987 H   0  0  0  0  0  0  0  0  0  0  0  0
    1.2280    2.0486    0.0254 H   0  0  0  0  0  0  0  0  0  0  0  0
    2.5674   -0.0383    0.0692 H   0  0  0  0  0  0  0  0  0  0  0  0
    1.4829   -2.2691    0.0304 H   0  0  0  0  0  0  0  0  0  0  0  0
   -1.0086   -2.4575   -0.0536 H   0  0  0  0  0  0  0  0  0  0  0  0
  1  4  2  0  0  0  0
  1  8  1  0  0  0  0
  2  1  1  0  0  0  0
  3  2  1  0  0  0  0
  4  5  1  0  0  0  0
  5 10  1  0  0  0  0
  5  6  2  0  0  0  0
  6 11  1  0  0  0  0
  7 12  1  0  0  0  0
  7  6  1  0  0  0  0
  8  7  2  0  0  0  0
 13  8  1  0  0  0  0
M  RAD  4   2   2   3   3   4   2   9   2
M  END
