Coordinates from ORCA-job PhN2+_B3LYPG-6-31G_dp-d09-49-n800
 OpenBabel11261919563D

 13 12  0  0  0  0  0  0  0  0999 V2000
   -1.2555   -0.2496   -0.0595 C   0  0  0  0  0  0  0  0  0  0  0  0
   -2.6311   -0.2988   -0.1053 N   0  0  0  0  0  0  0  0  0  0  0  0
   -3.7447   -0.3384   -0.1422 N   0  0  0  0  0  0  0  0  0  0  0  0
   -0.6234    0.9894   -0.0371 C   0  0  0  0  0  0  0  0  0  0  0  0
    0.7379    1.1013    0.0085 C   0  0  0  0  0  0  0  0  0  0  0  0
    1.4818   -0.0992    0.0322 C   0  0  0  0  0  0  0  0  0  0  0  0
    0.8573   -1.3584    0.0098 C   0  0  0  0  0  0  0  0  0  0  0  0
   -0.5220   -1.4657   -0.0364 C   0  0  0  0  0  0  0  0  0  0  0  0
   -2.6910    4.1575   -0.0985 H   0  0  0  0  0  0  0  0  0  0  0  0
    1.2457    2.0619    0.0265 H   0  0  0  0  0  0  0  0  0  0  0  0
    2.5669   -0.0391    0.0690 H   0  0  0  0  0  0  0  0  0  0  0  0
    1.4611   -2.2591    0.0292 H   0  0  0  0  0  0  0  0  0  0  0  0
   -1.0316   -2.4247   -0.0545 H   0  0  0  0  0  0  0  0  0  0  0  0
  1  4  2  0  0  0  0
  1  8  1  0  0  0  0
  2  1  1  0  0  0  0
  3  2  1  0  0  0  0
  4  5  1  0  0  0  0
  5 10  1  0  0  0  0
  5  6  2  0  0  0  0
  6 11  1  0  0  0  0
  7 12  1  0  0  0  0
  7  6  1  0  0  0  0
  8  7  2  0  0  0  0
 13  8  1  0  0  0  0
M  RAD  4   2   2   3   3   4   2   9   2
M  END
