Coordinates from ORCA-job PhN2+_B3LYPG-6-31G_dp-d09-49-n800
 OpenBabel11261919553D

 13 13  0  0  0  0  0  0  0  0999 V2000
   -1.3511   -0.0827   -0.0619 C   0  0  0  0  0  0  0  0  0  0  0  0
   -2.7234   -0.1550   -0.1072 N   0  0  0  0  0  0  0  0  0  0  0  0
   -3.8367   -0.2138   -0.1450 N   0  0  0  0  0  0  0  0  0  0  0  0
   -0.7542    1.1943   -0.0402 C   0  0  0  0  0  0  0  0  0  0  0  0
    0.6284    1.2530    0.0057 C   0  0  0  0  0  0  0  0  0  0  0  0
    1.3781    0.0670    0.0288 C   0  0  0  0  0  0  0  0  0  0  0  0
    0.7598   -1.1925    0.0064 C   0  0  0  0  0  0  0  0  0  0  0  0
   -0.6221   -1.2916   -0.0395 C   0  0  0  0  0  0  0  0  0  0  0  0
   -1.4430    2.2015   -0.0615 H   0  0  0  0  0  0  0  0  0  0  0  0
    1.1259    2.2163    0.0236 H   0  0  0  0  0  0  0  0  0  0  0  0
    2.4618    0.1258    0.0653 H   0  0  0  0  0  0  0  0  0  0  0  0
    1.3593   -2.0959    0.0250 H   0  0  0  0  0  0  0  0  0  0  0  0
   -1.1311   -2.2492   -0.0577 H   0  0  0  0  0  0  0  0  0  0  0  0
  1  4  2  0  0  0  0
  1  8  1  0  0  0  0
  2  1  1  0  0  0  0
  3  2  1  0  0  0  0
  4  5  1  0  0  0  0
  5 10  1  0  0  0  0
  5  6  2  0  0  0  0
  6 11  1  0  0  0  0
  7 12  1  0  0  0  0
  7  6  1  0  0  0  0
  8  7  2  0  0  0  0
  9  4  1  0  0  0  0
 13  8  1  0  0  0  0
M  RAD  2   2   2   3   3
M  END
