Coordinates from ORCA-job PhN2+_B3LYPG-6-31G_dp-d09-49-n800
 OpenBabel11261919563D

 13 12  0  0  0  0  0  0  0  0999 V2000
   -1.2498   -0.3161   -0.0600 C   0  0  0  0  0  0  0  0  0  0  0  0
   -2.6253   -0.3930   -0.1059 N   0  0  0  0  0  0  0  0  0  0  0  0
   -3.7381   -0.4521   -0.1427 N   0  0  0  0  0  0  0  0  0  0  0  0
   -0.6476    0.9377   -0.0389 C   0  0  0  0  0  0  0  0  0  0  0  0
    0.7132    1.0709    0.0070 C   0  0  0  0  0  0  0  0  0  0  0  0
    1.4811   -0.1136    0.0322 C   0  0  0  0  0  0  0  0  0  0  0  0
    0.8818   -1.3854    0.0110 C   0  0  0  0  0  0  0  0  0  0  0  0
   -0.4947   -1.5191   -0.0355 C   0  0  0  0  0  0  0  0  0  0  0  0
   -2.7562    4.7012   -0.0980 H   0  0  0  0  0  0  0  0  0  0  0  0
    1.2050    2.0403    0.0242 H   0  0  0  0  0  0  0  0  0  0  0  0
    2.5649   -0.0321    0.0692 H   0  0  0  0  0  0  0  0  0  0  0  0
    1.5034   -2.2740    0.0315 H   0  0  0  0  0  0  0  0  0  0  0  0
   -0.9863   -2.4876   -0.0526 H   0  0  0  0  0  0  0  0  0  0  0  0
  1  4  2  0  0  0  0
  1  8  1  0  0  0  0
  2  1  1  0  0  0  0
  3  2  1  0  0  0  0
  4  5  1  0  0  0  0
  5 10  1  0  0  0  0
  5  6  2  0  0  0  0
  6 11  1  0  0  0  0
  7 12  1  0  0  0  0
  7  6  1  0  0  0  0
  8  7  2  0  0  0  0
 13  8  1  0  0  0  0
M  RAD  4   2   2   3   3   4   2   9   2
M  END
