Coordinates from ORCA-job PhN2+_B3LYPG-6-31G_dp-d09-49-n800
 OpenBabel11261919563D

 13 12  0  0  0  0  0  0  0  0999 V2000
   -1.2913   -0.1722   -0.0604 C   0  0  0  0  0  0  0  0  0  0  0  0
   -2.6639   -0.2056   -0.1057 N   0  0  0  0  0  0  0  0  0  0  0  0
   -3.7775   -0.2346   -0.1423 N   0  0  0  0  0  0  0  0  0  0  0  0
   -0.6412    1.0596   -0.0370 C   0  0  0  0  0  0  0  0  0  0  0  0
    0.7195    1.1668    0.0085 C   0  0  0  0  0  0  0  0  0  0  0  0
    1.4511   -0.0405    0.0313 C   0  0  0  0  0  0  0  0  0  0  0  0
    0.8164   -1.2939    0.0082 C   0  0  0  0  0  0  0  0  0  0  0  0
   -0.5647   -1.3905   -0.0380 C   0  0  0  0  0  0  0  0  0  0  0  0
   -2.2928    3.2982   -0.0882 H   0  0  0  0  0  0  0  0  0  0  0  0
    1.2275    2.1258    0.0268 H   0  0  0  0  0  0  0  0  0  0  0  0
    2.5364    0.0097    0.0680 H   0  0  0  0  0  0  0  0  0  0  0  0
    1.4123   -2.1999    0.0269 H   0  0  0  0  0  0  0  0  0  0  0  0
   -1.0805   -2.3459   -0.0565 H   0  0  0  0  0  0  0  0  0  0  0  0
  1  8  2  0  0  0  0
  1  4  1  0  0  0  0
  2  1  1  0  0  0  0
  3  2  1  0  0  0  0
  4  5  2  0  0  0  0
  5 10  1  0  0  0  0
  5  6  1  0  0  0  0
  6 11  1  0  0  0  0
  7 12  1  0  0  0  0
  7  6  2  0  0  0  0
  8  7  1  0  0  0  0
 13  8  1  0  0  0  0
M  RAD  4   2   2   3   3   4   2   9   2
M  END
