Coordinates from ORCA-job PhN2+_B3LYPG-6-31G_dp-d09-49-n800
 OpenBabel11261919563D

 13 12  0  0  0  0  0  0  0  0999 V2000
   -1.2697   -0.2054   -0.0597 C   0  0  0  0  0  0  0  0  0  0  0  0
   -2.6441   -0.2418   -0.1052 N   0  0  0  0  0  0  0  0  0  0  0  0
   -3.7578   -0.2725   -0.1420 N   0  0  0  0  0  0  0  0  0  0  0  0
   -0.6231    1.0267   -0.0365 C   0  0  0  0  0  0  0  0  0  0  0  0
    0.7376    1.1324    0.0090 C   0  0  0  0  0  0  0  0  0  0  0  0
    1.4711   -0.0744    0.0319 C   0  0  0  0  0  0  0  0  0  0  0  0
    0.8367   -1.3284    0.0089 C   0  0  0  0  0  0  0  0  0  0  0  0
   -0.5438   -1.4254   -0.0373 C   0  0  0  0  0  0  0  0  0  0  0  0
   -2.5351    3.7133   -0.0954 H   0  0  0  0  0  0  0  0  0  0  0  0
    1.2495    2.0903    0.0273 H   0  0  0  0  0  0  0  0  0  0  0  0
    2.5566   -0.0230    0.0686 H   0  0  0  0  0  0  0  0  0  0  0  0
    1.4334   -2.2339    0.0277 H   0  0  0  0  0  0  0  0  0  0  0  0
   -1.0600   -2.3808   -0.0557 H   0  0  0  0  0  0  0  0  0  0  0  0
  1  8  2  0  0  0  0
  1  4  1  0  0  0  0
  2  1  1  0  0  0  0
  3  2  1  0  0  0  0
  4  5  2  0  0  0  0
  5 10  1  0  0  0  0
  5  6  1  0  0  0  0
  6 11  1  0  0  0  0
  7 12  1  0  0  0  0
  7  6  2  0  0  0  0
  8  7  1  0  0  0  0
 13  8  1  0  0  0  0
M  RAD  4   2   2   3   3   4   2   9   2
M  END
