Coordinates from ORCA-job PhN2+_B3LYPG-6-31G_dp-d09-49-n800
 OpenBabel11261919563D

 13 12  0  0  0  0  0  0  0  0999 V2000
   -1.2888   -0.1753   -0.0602 C   0  0  0  0  0  0  0  0  0  0  0  0
   -2.6616   -0.2086   -0.1056 N   0  0  0  0  0  0  0  0  0  0  0  0
   -3.7752   -0.2372   -0.1424 N   0  0  0  0  0  0  0  0  0  0  0  0
   -0.6386    1.0562   -0.0368 C   0  0  0  0  0  0  0  0  0  0  0  0
    0.7221    1.1631    0.0087 C   0  0  0  0  0  0  0  0  0  0  0  0
    1.4536   -0.0443    0.0314 C   0  0  0  0  0  0  0  0  0  0  0  0
    0.8186   -1.2977    0.0083 C   0  0  0  0  0  0  0  0  0  0  0  0
   -0.5625   -1.3940   -0.0379 C   0  0  0  0  0  0  0  0  0  0  0  0
   -2.3213    3.3402   -0.0892 H   0  0  0  0  0  0  0  0  0  0  0  0
    1.2307    2.1219    0.0270 H   0  0  0  0  0  0  0  0  0  0  0  0
    2.5389    0.0057    0.0680 H   0  0  0  0  0  0  0  0  0  0  0  0
    1.4143   -2.2037    0.0269 H   0  0  0  0  0  0  0  0  0  0  0  0
   -1.0786   -2.3493   -0.0564 H   0  0  0  0  0  0  0  0  0  0  0  0
  1  8  2  0  0  0  0
  1  4  1  0  0  0  0
  2  1  1  0  0  0  0
  3  2  1  0  0  0  0
  4  5  2  0  0  0  0
  5 10  1  0  0  0  0
  5  6  1  0  0  0  0
  6 11  1  0  0  0  0
  7 12  1  0  0  0  0
  7  6  2  0  0  0  0
  8  7  1  0  0  0  0
 13  8  1  0  0  0  0
M  RAD  4   2   2   3   3   4   2   9   2
M  END
