Coordinates from ORCA-job PhN2+_B3LYPG-6-31G_dp-d09-49-n800
 OpenBabel11261919563D

 13 12  0  0  0  0  0  0  0  0999 V2000
   -1.2501   -0.3044   -0.0599 C   0  0  0  0  0  0  0  0  0  0  0  0
   -2.6257   -0.3761   -0.1057 N   0  0  0  0  0  0  0  0  0  0  0  0
   -3.7386   -0.4315   -0.1426 N   0  0  0  0  0  0  0  0  0  0  0  0
   -0.6424    0.9468   -0.0385 C   0  0  0  0  0  0  0  0  0  0  0  0
    0.7186    1.0754    0.0073 C   0  0  0  0  0  0  0  0  0  0  0  0
    1.4820   -0.1122    0.0322 C   0  0  0  0  0  0  0  0  0  0  0  0
    0.8778   -1.3815    0.0108 C   0  0  0  0  0  0  0  0  0  0  0  0
   -0.4993   -1.5101   -0.0357 C   0  0  0  0  0  0  0  0  0  0  0  0
   -2.7521    4.6117   -0.0984 H   0  0  0  0  0  0  0  0  0  0  0  0
    1.2137    2.0430    0.0247 H   0  0  0  0  0  0  0  0  0  0  0  0
    2.5660   -0.0347    0.0692 H   0  0  0  0  0  0  0  0  0  0  0  0
    1.4960   -2.2725    0.0311 H   0  0  0  0  0  0  0  0  0  0  0  0
   -0.9944   -2.4768   -0.0530 H   0  0  0  0  0  0  0  0  0  0  0  0
  1  4  2  0  0  0  0
  1  8  1  0  0  0  0
  2  1  1  0  0  0  0
  3  2  1  0  0  0  0
  4  5  1  0  0  0  0
  5 10  1  0  0  0  0
  5  6  2  0  0  0  0
  6 11  1  0  0  0  0
  7 12  1  0  0  0  0
  7  6  1  0  0  0  0
  8  7  2  0  0  0  0
 13  8  1  0  0  0  0
M  RAD  4   2   2   3   3   4   2   9   2
M  END
