Coordinates from ORCA-job PhN2+_B3LYPG-6-31G_dp-d09-49-n800
 OpenBabel11261919563D

 13 12  0  0  0  0  0  0  0  0999 V2000
   -1.3081   -0.1535   -0.0608 C   0  0  0  0  0  0  0  0  0  0  0  0
   -2.6796   -0.1909   -0.1061 N   0  0  0  0  0  0  0  0  0  0  0  0
   -3.7931   -0.2230   -0.1428 N   0  0  0  0  0  0  0  0  0  0  0  0
   -0.6635    1.0833   -0.0376 C   0  0  0  0  0  0  0  0  0  0  0  0
    0.6992    1.1900    0.0080 C   0  0  0  0  0  0  0  0  0  0  0  0
    1.4335   -0.0140    0.0307 C   0  0  0  0  0  0  0  0  0  0  0  0
    0.8027   -1.2693    0.0077 C   0  0  0  0  0  0  0  0  0  0  0  0
   -0.5786   -1.3687   -0.0384 C   0  0  0  0  0  0  0  0  0  0  0  0
   -2.0903    3.0336   -0.0821 H   0  0  0  0  0  0  0  0  0  0  0  0
    1.2020    2.1509    0.0261 H   0  0  0  0  0  0  0  0  0  0  0  0
    2.5184    0.0381    0.0673 H   0  0  0  0  0  0  0  0  0  0  0  0
    1.4004   -2.1739    0.0263 H   0  0  0  0  0  0  0  0  0  0  0  0
   -1.0914   -2.3253   -0.0568 H   0  0  0  0  0  0  0  0  0  0  0  0
  1  8  2  0  0  0  0
  1  4  1  0  0  0  0
  2  1  1  0  0  0  0
  3  2  1  0  0  0  0
  4  5  2  0  0  0  0
  5 10  1  0  0  0  0
  5  6  1  0  0  0  0
  6 11  1  0  0  0  0
  7 12  1  0  0  0  0
  7  6  2  0  0  0  0
  8  7  1  0  0  0  0
 13  8  1  0  0  0  0
M  RAD  4   2   2   3   3   4   2   9   2
M  END
