Coordinates from ORCA-job PhN2+_B3LYPG-6-31G_dp-d09-49-n800
 OpenBabel11261919563D

 13 12  0  0  0  0  0  0  0  0999 V2000
   -1.3116   -0.1493   -0.0609 C   0  0  0  0  0  0  0  0  0  0  0  0
   -2.6829   -0.1880   -0.1062 N   0  0  0  0  0  0  0  0  0  0  0  0
   -3.7964   -0.2213   -0.1429 N   0  0  0  0  0  0  0  0  0  0  0  0
   -0.6688    1.0891   -0.0377 C   0  0  0  0  0  0  0  0  0  0  0  0
    0.6946    1.1948    0.0078 C   0  0  0  0  0  0  0  0  0  0  0  0
    1.4296   -0.0083    0.0306 C   0  0  0  0  0  0  0  0  0  0  0  0
    0.7997   -1.2640    0.0076 C   0  0  0  0  0  0  0  0  0  0  0  0
   -0.5816   -1.3639   -0.0385 C   0  0  0  0  0  0  0  0  0  0  0  0
   -2.0458    2.9767   -0.0807 H   0  0  0  0  0  0  0  0  0  0  0  0
    1.1964    2.1561    0.0259 H   0  0  0  0  0  0  0  0  0  0  0  0
    2.5144    0.0442    0.0672 H   0  0  0  0  0  0  0  0  0  0  0  0
    1.3978   -2.1684    0.0262 H   0  0  0  0  0  0  0  0  0  0  0  0
   -1.0938   -2.3207   -0.0569 H   0  0  0  0  0  0  0  0  0  0  0  0
  1  8  2  0  0  0  0
  1  4  1  0  0  0  0
  2  1  1  0  0  0  0
  3  2  1  0  0  0  0
  4  5  2  0  0  0  0
  5 10  1  0  0  0  0
  5  6  1  0  0  0  0
  6 11  1  0  0  0  0
  7 12  1  0  0  0  0
  7  6  2  0  0  0  0
  8  7  1  0  0  0  0
 13  8  1  0  0  0  0
M  RAD  4   2   2   3   3   4   2   9   2
M  END
