Coordinates from ORCA-job PhN2+_B3LYPG-6-31G_dp-d09-49-n800
 OpenBabel11261919563D

 13 12  0  0  0  0  0  0  0  0999 V2000
   -1.2580   -0.2382   -0.0595 C   0  0  0  0  0  0  0  0  0  0  0  0
   -2.6333   -0.2839   -0.1052 N   0  0  0  0  0  0  0  0  0  0  0  0
   -3.7469   -0.3211   -0.1421 N   0  0  0  0  0  0  0  0  0  0  0  0
   -0.6219    0.9990   -0.0369 C   0  0  0  0  0  0  0  0  0  0  0  0
    0.7394    1.1080    0.0087 C   0  0  0  0  0  0  0  0  0  0  0  0
    1.4801   -0.0944    0.0322 C   0  0  0  0  0  0  0  0  0  0  0  0
    0.8525   -1.3519    0.0096 C   0  0  0  0  0  0  0  0  0  0  0  0
   -0.5271   -1.4558   -0.0366 C   0  0  0  0  0  0  0  0  0  0  0  0
   -2.6627    4.0528   -0.0982 H   0  0  0  0  0  0  0  0  0  0  0  0
    1.2491    2.0675    0.0268 H   0  0  0  0  0  0  0  0  0  0  0  0
    2.5653   -0.0370    0.0690 H   0  0  0  0  0  0  0  0  0  0  0  0
    1.4541   -2.2542    0.0288 H   0  0  0  0  0  0  0  0  0  0  0  0
   -1.0390   -2.4136   -0.0548 H   0  0  0  0  0  0  0  0  0  0  0  0
  1  4  2  0  0  0  0
  1  8  1  0  0  0  0
  2  1  1  0  0  0  0
  3  2  1  0  0  0  0
  4  5  1  0  0  0  0
  5 10  1  0  0  0  0
  5  6  2  0  0  0  0
  6 11  1  0  0  0  0
  7 12  1  0  0  0  0
  7  6  1  0  0  0  0
  8  7  2  0  0  0  0
 13  8  1  0  0  0  0
M  RAD  4   2   2   3   3   4   2   9   2
M  END
