Coordinates from ORCA-job PhN2+_B3LYPG-6-31G_dp-d09-49-n800
 OpenBabel11261919563D

 13 12  0  0  0  0  0  0  0  0999 V2000
   -1.3228   -0.1346   -0.0612 C   0  0  0  0  0  0  0  0  0  0  0  0
   -2.6936   -0.1795   -0.1066 N   0  0  0  0  0  0  0  0  0  0  0  0
   -3.8071   -0.2176   -0.1433 N   0  0  0  0  0  0  0  0  0  0  0  0
   -0.6880    1.1107   -0.0384 C   0  0  0  0  0  0  0  0  0  0  0  0
    0.6786    1.2105    0.0073 C   0  0  0  0  0  0  0  0  0  0  0  0
    1.4164    0.0109    0.0302 C   0  0  0  0  0  0  0  0  0  0  0  0
    0.7897   -1.2462    0.0073 C   0  0  0  0  0  0  0  0  0  0  0  0
   -0.5917   -1.3472   -0.0388 C   0  0  0  0  0  0  0  0  0  0  0  0
   -1.8952    2.7874   -0.0758 H   0  0  0  0  0  0  0  0  0  0  0  0
    1.1778    2.1726    0.0253 H   0  0  0  0  0  0  0  0  0  0  0  0
    2.5010    0.0647    0.0668 H   0  0  0  0  0  0  0  0  0  0  0  0
    1.3887   -2.1499    0.0260 H   0  0  0  0  0  0  0  0  0  0  0  0
   -1.1022   -2.3047   -0.0571 H   0  0  0  0  0  0  0  0  0  0  0  0
  1  8  2  0  0  0  0
  1  4  1  0  0  0  0
  2  1  1  0  0  0  0
  3  2  1  0  0  0  0
  4  5  2  0  0  0  0
  5 10  1  0  0  0  0
  5  6  1  0  0  0  0
  6 11  1  0  0  0  0
  7 12  1  0  0  0  0
  7  6  2  0  0  0  0
  8  7  1  0  0  0  0
 13  8  1  0  0  0  0
M  RAD  4   2   2   3   3   4   2   9   2
M  END
