Coordinates from ORCA-job PhN2+_B3LYPG-6-31G_dp-d09-49-n800
 OpenBabel11261919563D

 13 12  0  0  0  0  0  0  0  0999 V2000
   -1.2803   -0.1876   -0.0599 C   0  0  0  0  0  0  0  0  0  0  0  0
   -2.6537   -0.2212   -0.1053 N   0  0  0  0  0  0  0  0  0  0  0  0
   -3.7674   -0.2502   -0.1421 N   0  0  0  0  0  0  0  0  0  0  0  0
   -0.6305    1.0435   -0.0366 C   0  0  0  0  0  0  0  0  0  0  0  0
    0.7301    1.1499    0.0089 C   0  0  0  0  0  0  0  0  0  0  0  0
    1.4618   -0.0578    0.0316 C   0  0  0  0  0  0  0  0  0  0  0  0
    0.8264   -1.3110    0.0085 C   0  0  0  0  0  0  0  0  0  0  0  0
   -0.5545   -1.4072   -0.0376 C   0  0  0  0  0  0  0  0  0  0  0  0
   -2.4193    3.4979   -0.0923 H   0  0  0  0  0  0  0  0  0  0  0  0
    1.2406    2.1081    0.0273 H   0  0  0  0  0  0  0  0  0  0  0  0
    2.5472   -0.0078    0.0683 H   0  0  0  0  0  0  0  0  0  0  0  0
    1.4221   -2.2171    0.0271 H   0  0  0  0  0  0  0  0  0  0  0  0
   -1.0710   -2.3623   -0.0562 H   0  0  0  0  0  0  0  0  0  0  0  0
  1  8  2  0  0  0  0
  1  4  1  0  0  0  0
  2  1  1  0  0  0  0
  3  2  1  0  0  0  0
  4  5  2  0  0  0  0
  5 10  1  0  0  0  0
  5  6  1  0  0  0  0
  6 11  1  0  0  0  0
  7 12  1  0  0  0  0
  7  6  2  0  0  0  0
  8  7  1  0  0  0  0
 13  8  1  0  0  0  0
M  RAD  4   2   2   3   3   4   2   9   2
M  END
