Coordinates from ORCA-job PhN2+_B3LYPG-6-31G_dp-d09-49-n800
 OpenBabel11261919553D

 13 13  0  0  0  0  0  0  0  0999 V2000
   -1.3493   -0.0865   -0.0619 C   0  0  0  0  0  0  0  0  0  0  0  0
   -2.7213   -0.1572   -0.1072 N   0  0  0  0  0  0  0  0  0  0  0  0
   -3.8347   -0.2146   -0.1447 N   0  0  0  0  0  0  0  0  0  0  0  0
   -0.7497    1.1882   -0.0401 C   0  0  0  0  0  0  0  0  0  0  0  0
    0.6318    1.2501    0.0058 C   0  0  0  0  0  0  0  0  0  0  0  0
    1.3806    0.0631    0.0289 C   0  0  0  0  0  0  0  0  0  0  0  0
    0.7618   -1.1963    0.0064 C   0  0  0  0  0  0  0  0  0  0  0  0
   -0.6200   -1.2957   -0.0395 C   0  0  0  0  0  0  0  0  0  0  0  0
   -1.4737    2.2442   -0.0626 H   0  0  0  0  0  0  0  0  0  0  0  0
    1.1293    2.2132    0.0238 H   0  0  0  0  0  0  0  0  0  0  0  0
    2.4643    0.1215    0.0654 H   0  0  0  0  0  0  0  0  0  0  0  0
    1.3614   -2.0997    0.0251 H   0  0  0  0  0  0  0  0  0  0  0  0
   -1.1290   -2.2532   -0.0577 H   0  0  0  0  0  0  0  0  0  0  0  0
  1  4  2  0  0  0  0
  1  8  1  0  0  0  0
  2  1  1  0  0  0  0
  3  2  1  0  0  0  0
  4  5  1  0  0  0  0
  5 10  1  0  0  0  0
  5  6  2  0  0  0  0
  6 11  1  0  0  0  0
  7 12  1  0  0  0  0
  7  6  1  0  0  0  0
  8  7  2  0  0  0  0
  9  4  1  0  0  0  0
 13  8  1  0  0  0  0
M  RAD  2   2   2   3   3
M  END
