Coordinates from ORCA-job PhN2+_B3LYPG-6-31G_dp-d09-49-n800
 OpenBabel11261919563D

 13 12  0  0  0  0  0  0  0  0999 V2000
   -1.2518   -0.2752   -0.0597 C   0  0  0  0  0  0  0  0  0  0  0  0
   -2.6276   -0.3345   -0.1054 N   0  0  0  0  0  0  0  0  0  0  0  0
   -3.7409   -0.3810   -0.1423 N   0  0  0  0  0  0  0  0  0  0  0  0
   -0.6310    0.9696   -0.0377 C   0  0  0  0  0  0  0  0  0  0  0  0
    0.7304    1.0880    0.0080 C   0  0  0  0  0  0  0  0  0  0  0  0
    1.4829   -0.1068    0.0323 C   0  0  0  0  0  0  0  0  0  0  0  0
    0.8673   -1.3705    0.0103 C   0  0  0  0  0  0  0  0  0  0  0  0
   -0.5110   -1.4869   -0.0361 C   0  0  0  0  0  0  0  0  0  0  0  0
   -2.7304    4.3784   -0.0988 H   0  0  0  0  0  0  0  0  0  0  0  0
    1.2331    2.0515    0.0257 H   0  0  0  0  0  0  0  0  0  0  0  0
    2.5676   -0.0390    0.0692 H   0  0  0  0  0  0  0  0  0  0  0  0
    1.4774   -2.2671    0.0300 H   0  0  0  0  0  0  0  0  0  0  0  0
   -1.0145   -2.4492   -0.0538 H   0  0  0  0  0  0  0  0  0  0  0  0
  1  4  2  0  0  0  0
  1  8  1  0  0  0  0
  2  1  1  0  0  0  0
  3  2  1  0  0  0  0
  4  5  1  0  0  0  0
  5 10  1  0  0  0  0
  5  6  2  0  0  0  0
  6 11  1  0  0  0  0
  7 12  1  0  0  0  0
  7  6  1  0  0  0  0
  8  7  2  0  0  0  0
 13  8  1  0  0  0  0
M  RAD  4   2   2   3   3   4   2   9   2
M  END
