Coordinates from ORCA-job PhN2+_B3LYPG-6-31G_dp-d09-49-n800
 OpenBabel11261919563D

 13 12  0  0  0  0  0  0  0  0999 V2000
   -1.2519   -0.2745   -0.0596 C   0  0  0  0  0  0  0  0  0  0  0  0
   -2.6276   -0.3335   -0.1054 N   0  0  0  0  0  0  0  0  0  0  0  0
   -3.7409   -0.3799   -0.1424 N   0  0  0  0  0  0  0  0  0  0  0  0
   -0.6307    0.9701   -0.0377 C   0  0  0  0  0  0  0  0  0  0  0  0
    0.7307    1.0882    0.0080 C   0  0  0  0  0  0  0  0  0  0  0  0
    1.4829   -0.1067    0.0322 C   0  0  0  0  0  0  0  0  0  0  0  0
    0.8670   -1.3703    0.0103 C   0  0  0  0  0  0  0  0  0  0  0  0
   -0.5113   -1.4864   -0.0360 C   0  0  0  0  0  0  0  0  0  0  0  0
   -2.7299    4.3731   -0.0988 H   0  0  0  0  0  0  0  0  0  0  0  0
    1.2336    2.0517    0.0257 H   0  0  0  0  0  0  0  0  0  0  0  0
    2.5676   -0.0391    0.0691 H   0  0  0  0  0  0  0  0  0  0  0  0
    1.4770   -2.2669    0.0300 H   0  0  0  0  0  0  0  0  0  0  0  0
   -1.0150   -2.4486   -0.0538 H   0  0  0  0  0  0  0  0  0  0  0  0
  1  4  2  0  0  0  0
  1  8  1  0  0  0  0
  2  1  1  0  0  0  0
  3  2  1  0  0  0  0
  4  5  1  0  0  0  0
  5 10  1  0  0  0  0
  5  6  2  0  0  0  0
  6 11  1  0  0  0  0
  7 12  1  0  0  0  0
  7  6  1  0  0  0  0
  8  7  2  0  0  0  0
 13  8  1  0  0  0  0
M  RAD  4   2   2   3   3   4   2   9   2
M  END
