Coordinates from ORCA-job PhN2+_B3LYPG-6-31G_dp-d09-49-n800
 OpenBabel11261919553D

 13 12  0  0  0  0  0  0  0  0999 V2000
   -1.3377   -0.1105   -0.0617 C   0  0  0  0  0  0  0  0  0  0  0  0
   -2.7086   -0.1683   -0.1070 N   0  0  0  0  0  0  0  0  0  0  0  0
   -3.8221   -0.2162   -0.1438 N   0  0  0  0  0  0  0  0  0  0  0  0
   -0.7200    1.1493   -0.0393 C   0  0  0  0  0  0  0  0  0  0  0  0
    0.6540    1.2320    0.0065 C   0  0  0  0  0  0  0  0  0  0  0  0
    1.3970    0.0388    0.0296 C   0  0  0  0  0  0  0  0  0  0  0  0
    0.7748   -1.2199    0.0069 C   0  0  0  0  0  0  0  0  0  0  0  0
   -0.6067   -1.3209   -0.0392 C   0  0  0  0  0  0  0  0  0  0  0  0
   -1.6705    2.5049   -0.0689 H   0  0  0  0  0  0  0  0  0  0  0  0
    1.1513    2.1948    0.0245 H   0  0  0  0  0  0  0  0  0  0  0  0
    2.4811    0.0947    0.0661 H   0  0  0  0  0  0  0  0  0  0  0  0
    1.3746   -2.1231    0.0255 H   0  0  0  0  0  0  0  0  0  0  0  0
   -1.1157   -2.2787   -0.0575 H   0  0  0  0  0  0  0  0  0  0  0  0
  1  4  2  0  0  0  0
  1  8  1  0  0  0  0
  2  1  1  0  0  0  0
  3  2  1  0  0  0  0
  4  5  1  0  0  0  0
  5 10  1  0  0  0  0
  5  6  2  0  0  0  0
  6 11  1  0  0  0  0
  7 12  1  0  0  0  0
  7  6  1  0  0  0  0
  8  7  2  0  0  0  0
 13  8  1  0  0  0  0
M  RAD  4   2   2   3   3   4   2   9   2
M  END
