Coordinates from ORCA-job PhN2+_B3LYPG-6-31G_dp-d09-49-n800
 OpenBabel11261919563D

 13 12  0  0  0  0  0  0  0  0999 V2000
   -1.2498   -0.3226   -0.0600 C   0  0  0  0  0  0  0  0  0  0  0  0
   -2.6252   -0.4023   -0.1059 N   0  0  0  0  0  0  0  0  0  0  0  0
   -3.7379   -0.4634   -0.1428 N   0  0  0  0  0  0  0  0  0  0  0  0
   -0.6505    0.9326   -0.0390 C   0  0  0  0  0  0  0  0  0  0  0  0
    0.7099    1.0687    0.0069 C   0  0  0  0  0  0  0  0  0  0  0  0
    1.4805   -0.1142    0.0322 C   0  0  0  0  0  0  0  0  0  0  0  0
    0.8839   -1.3872    0.0111 C   0  0  0  0  0  0  0  0  0  0  0  0
   -0.4923   -1.5240   -0.0354 C   0  0  0  0  0  0  0  0  0  0  0  0
   -2.7566    4.7489   -0.0978 H   0  0  0  0  0  0  0  0  0  0  0  0
    1.1997    2.0391    0.0240 H   0  0  0  0  0  0  0  0  0  0  0  0
    2.5641   -0.0303    0.0692 H   0  0  0  0  0  0  0  0  0  0  0  0
    1.5075   -2.2745    0.0317 H   0  0  0  0  0  0  0  0  0  0  0  0
   -0.9817   -2.4936   -0.0525 H   0  0  0  0  0  0  0  0  0  0  0  0
  1  4  2  0  0  0  0
  1  8  1  0  0  0  0
  2  1  1  0  0  0  0
  3  2  1  0  0  0  0
  4  5  1  0  0  0  0
  5 10  1  0  0  0  0
  5  6  2  0  0  0  0
  6 11  1  0  0  0  0
  7 12  1  0  0  0  0
  7  6  1  0  0  0  0
  8  7  2  0  0  0  0
 13  8  1  0  0  0  0
M  RAD  4   2   2   3   3   4   2   9   2
M  END
