Coordinates from ORCA-job PhN2+_B3LYPG-6-31G_dp-d09-49-n800
 OpenBabel11261919563D

 13 12  0  0  0  0  0  0  0  0999 V2000
   -1.2814   -0.1856   -0.0600 C   0  0  0  0  0  0  0  0  0  0  0  0
   -2.6548   -0.2189   -0.1054 N   0  0  0  0  0  0  0  0  0  0  0  0
   -3.7685   -0.2477   -0.1421 N   0  0  0  0  0  0  0  0  0  0  0  0
   -0.6314    1.0453   -0.0366 C   0  0  0  0  0  0  0  0  0  0  0  0
    0.7291    1.1519    0.0089 C   0  0  0  0  0  0  0  0  0  0  0  0
    1.4607   -0.0559    0.0316 C   0  0  0  0  0  0  0  0  0  0  0  0
    0.8252   -1.3091    0.0085 C   0  0  0  0  0  0  0  0  0  0  0  0
   -0.5557   -1.4051   -0.0377 C   0  0  0  0  0  0  0  0  0  0  0  0
   -2.4057    3.4733   -0.0919 H   0  0  0  0  0  0  0  0  0  0  0  0
    1.2393    2.1101    0.0273 H   0  0  0  0  0  0  0  0  0  0  0  0
    2.5461   -0.0059    0.0683 H   0  0  0  0  0  0  0  0  0  0  0  0
    1.4209   -2.2152    0.0271 H   0  0  0  0  0  0  0  0  0  0  0  0
   -1.0722   -2.3602   -0.0562 H   0  0  0  0  0  0  0  0  0  0  0  0
  1  8  2  0  0  0  0
  1  4  1  0  0  0  0
  2  1  1  0  0  0  0
  3  2  1  0  0  0  0
  4  5  2  0  0  0  0
  5 10  1  0  0  0  0
  5  6  1  0  0  0  0
  6 11  1  0  0  0  0
  7 12  1  0  0  0  0
  7  6  2  0  0  0  0
  8  7  1  0  0  0  0
 13  8  1  0  0  0  0
M  RAD  4   2   2   3   3   4   2   9   2
M  END
