Coordinates from ORCA-job PhN2+_B3LYPG-6-31G_dp-d09-49-n800
 OpenBabel11261919563D

 13 12  0  0  0  0  0  0  0  0999 V2000
   -1.2632   -0.2214   -0.0595 C   0  0  0  0  0  0  0  0  0  0  0  0
   -2.6381   -0.2618   -0.1050 N   0  0  0  0  0  0  0  0  0  0  0  0
   -3.7518   -0.2952   -0.1423 N   0  0  0  0  0  0  0  0  0  0  0  0
   -0.6210    1.0128   -0.0367 C   0  0  0  0  0  0  0  0  0  0  0  0
    0.7401    1.1197    0.0089 C   0  0  0  0  0  0  0  0  0  0  0  0
    1.4766   -0.0855    0.0320 C   0  0  0  0  0  0  0  0  0  0  0  0
    0.8448   -1.3408    0.0093 C   0  0  0  0  0  0  0  0  0  0  0  0
   -0.5353   -1.4406   -0.0369 C   0  0  0  0  0  0  0  0  0  0  0  0
   -2.6076    3.8855   -0.0970 H   0  0  0  0  0  0  0  0  0  0  0  0
    1.2515    2.0781    0.0271 H   0  0  0  0  0  0  0  0  0  0  0  0
    2.5620   -0.0318    0.0688 H   0  0  0  0  0  0  0  0  0  0  0  0
    1.4434   -2.2450    0.0282 H   0  0  0  0  0  0  0  0  0  0  0  0
   -1.0498   -2.3969   -0.0552 H   0  0  0  0  0  0  0  0  0  0  0  0
  1  8  2  0  0  0  0
  1  4  1  0  0  0  0
  2  1  1  0  0  0  0
  3  2  1  0  0  0  0
  4  5  2  0  0  0  0
  5 10  1  0  0  0  0
  5  6  1  0  0  0  0
  6 11  1  0  0  0  0
  7 12  1  0  0  0  0
  7  6  2  0  0  0  0
  8  7  1  0  0  0  0
 13  8  1  0  0  0  0
M  RAD  4   2   2   3   3   4   2   9   2
M  END
