Coordinates from ORCA-job PhN2+_B3LYPG-6-31G_dp-d09-49-n800
 OpenBabel11261919553D

 13 13  0  0  0  0  0  0  0  0999 V2000
   -1.3466   -0.0924   -0.0619 C   0  0  0  0  0  0  0  0  0  0  0  0
   -2.7183   -0.1601   -0.1072 N   0  0  0  0  0  0  0  0  0  0  0  0
   -3.8317   -0.2154   -0.1444 N   0  0  0  0  0  0  0  0  0  0  0  0
   -0.7428    1.1789   -0.0400 C   0  0  0  0  0  0  0  0  0  0  0  0
    0.6370    1.2458    0.0060 C   0  0  0  0  0  0  0  0  0  0  0  0
    1.3844    0.0574    0.0291 C   0  0  0  0  0  0  0  0  0  0  0  0
    0.7649   -1.2020    0.0065 C   0  0  0  0  0  0  0  0  0  0  0  0
   -0.6168   -1.3018   -0.0395 C   0  0  0  0  0  0  0  0  0  0  0  0
   -1.5201    2.3075   -0.0641 H   0  0  0  0  0  0  0  0  0  0  0  0
    1.1345    2.2087    0.0240 H   0  0  0  0  0  0  0  0  0  0  0  0
    2.4682    0.1151    0.0657 H   0  0  0  0  0  0  0  0  0  0  0  0
    1.3645   -2.1053    0.0252 H   0  0  0  0  0  0  0  0  0  0  0  0
   -1.1257   -2.2594   -0.0577 H   0  0  0  0  0  0  0  0  0  0  0  0
  1  4  2  0  0  0  0
  1  8  1  0  0  0  0
  2  1  1  0  0  0  0
  3  2  1  0  0  0  0
  4  5  1  0  0  0  0
  5 10  1  0  0  0  0
  5  6  2  0  0  0  0
  6 11  1  0  0  0  0
  7 12  1  0  0  0  0
  7  6  1  0  0  0  0
  8  7  2  0  0  0  0
  9  4  1  0  0  0  0
 13  8  1  0  0  0  0
M  RAD  2   2   2   3   3
M  END
