Coordinates from ORCA-job PhN2+_B3LYPG-6-31G_dp-d09-49-n800
 OpenBabel11261919553D

 13 12  0  0  0  0  0  0  0  0999 V2000
   -1.3417   -0.1026   -0.0618 C   0  0  0  0  0  0  0  0  0  0  0  0
   -2.7129   -0.1648   -0.1071 N   0  0  0  0  0  0  0  0  0  0  0  0
   -3.8263   -0.2160   -0.1440 N   0  0  0  0  0  0  0  0  0  0  0  0
   -0.7301    1.1622   -0.0396 C   0  0  0  0  0  0  0  0  0  0  0  0
    0.6465    1.2381    0.0063 C   0  0  0  0  0  0  0  0  0  0  0  0
    1.3913    0.0470    0.0294 C   0  0  0  0  0  0  0  0  0  0  0  0
    0.7704   -1.2120    0.0067 C   0  0  0  0  0  0  0  0  0  0  0  0
   -0.6112   -1.3125   -0.0394 C   0  0  0  0  0  0  0  0  0  0  0  0
   -1.6039    2.4188   -0.0669 H   0  0  0  0  0  0  0  0  0  0  0  0
    1.1438    2.2009    0.0243 H   0  0  0  0  0  0  0  0  0  0  0  0
    2.4753    0.1037    0.0659 H   0  0  0  0  0  0  0  0  0  0  0  0
    1.3702   -2.1152    0.0254 H   0  0  0  0  0  0  0  0  0  0  0  0
   -1.1200   -2.2703   -0.0577 H   0  0  0  0  0  0  0  0  0  0  0  0
  1  4  2  0  0  0  0
  1  8  1  0  0  0  0
  2  1  1  0  0  0  0
  3  2  1  0  0  0  0
  4  5  1  0  0  0  0
  5 10  1  0  0  0  0
  5  6  2  0  0  0  0
  6 11  1  0  0  0  0
  7 12  1  0  0  0  0
  7  6  1  0  0  0  0
  8  7  2  0  0  0  0
 13  8  1  0  0  0  0
M  RAD  4   2   2   3   3   4   2   9   2
M  END
