Coordinates from ORCA-job PhN2+_B3LYPG-6-31G_dp-d09-49-n800
 OpenBabel11261919563D

 13 12  0  0  0  0  0  0  0  0999 V2000
   -1.2503   -0.2988   -0.0598 C   0  0  0  0  0  0  0  0  0  0  0  0
   -2.6260   -0.3677   -0.1057 N   0  0  0  0  0  0  0  0  0  0  0  0
   -3.7391   -0.4209   -0.1426 N   0  0  0  0  0  0  0  0  0  0  0  0
   -0.6394    0.9506   -0.0383 C   0  0  0  0  0  0  0  0  0  0  0  0
    0.7214    1.0778    0.0075 C   0  0  0  0  0  0  0  0  0  0  0  0
    1.4826   -0.1115    0.0322 C   0  0  0  0  0  0  0  0  0  0  0  0
    0.8758   -1.3796    0.0107 C   0  0  0  0  0  0  0  0  0  0  0  0
   -0.5015   -1.5059   -0.0357 C   0  0  0  0  0  0  0  0  0  0  0  0
   -2.7508    4.5682   -0.0985 H   0  0  0  0  0  0  0  0  0  0  0  0
    1.2180    2.0446    0.0249 H   0  0  0  0  0  0  0  0  0  0  0  0
    2.5667   -0.0362    0.0692 H   0  0  0  0  0  0  0  0  0  0  0  0
    1.4923   -2.2718    0.0309 H   0  0  0  0  0  0  0  0  0  0  0  0
   -0.9983   -2.4717   -0.0531 H   0  0  0  0  0  0  0  0  0  0  0  0
  1  4  2  0  0  0  0
  1  8  1  0  0  0  0
  2  1  1  0  0  0  0
  3  2  1  0  0  0  0
  4  5  1  0  0  0  0
  5 10  1  0  0  0  0
  5  6  2  0  0  0  0
  6 11  1  0  0  0  0
  7 12  1  0  0  0  0
  7  6  1  0  0  0  0
  8  7  2  0  0  0  0
 13  8  1  0  0  0  0
M  RAD  4   2   2   3   3   4   2   9   2
M  END
