Coordinates from ORCA-job PhN2+_B3LYPG-6-31G_dp-d09-49-n800
 OpenBabel11261919563D

 13 12  0  0  0  0  0  0  0  0999 V2000
   -1.2504   -0.2957   -0.0609 C   0  0  0  0  0  0  0  0  0  0  0  0
   -2.6260   -0.3637   -0.1080 N   0  0  0  0  0  0  0  0  0  0  0  0
   -3.7393   -0.4162   -0.1378 N   0  0  0  0  0  0  0  0  0  0  0  0
   -0.6388    0.9539   -0.0387 C   0  0  0  0  0  0  0  0  0  0  0  0
    0.7226    1.0790    0.0078 C   0  0  0  0  0  0  0  0  0  0  0  0
    1.4825   -0.1109    0.0328 C   0  0  0  0  0  0  0  0  0  0  0  0
    0.8747   -1.3785    0.0106 C   0  0  0  0  0  0  0  0  0  0  0  0
   -0.5027   -1.5033   -0.0366 C   0  0  0  0  0  0  0  0  0  0  0  0
   -2.7481    4.5437   -0.0997 H   0  0  0  0  0  0  0  0  0  0  0  0
    1.2203    2.0452    0.0257 H   0  0  0  0  0  0  0  0  0  0  0  0
    2.5667   -0.0367    0.0703 H   0  0  0  0  0  0  0  0  0  0  0  0
    1.4904   -2.2712    0.0309 H   0  0  0  0  0  0  0  0  0  0  0  0
   -1.0004   -2.4686   -0.0547 H   0  0  0  0  0  0  0  0  0  0  0  0
  1  4  2  0  0  0  0
  1  8  1  0  0  0  0
  2  1  1  0  0  0  0
  3  2  1  0  0  0  0
  4  5  1  0  0  0  0
  5 10  1  0  0  0  0
  5  6  2  0  0  0  0
  6 11  1  0  0  0  0
  7 12  1  0  0  0  0
  7  6  1  0  0  0  0
  8  7  2  0  0  0  0
 13  8  1  0  0  0  0
M  RAD  4   2   2   3   3   4   2   9   2
M  END
