Coordinates from ORCA-job PhN2+_B3LYPG-6-31G_dp-d09-49-n800
 OpenBabel11261919563D

 13 12  0  0  0  0  0  0  0  0999 V2000
   -1.2508   -0.3716   -0.0602 C   0  0  0  0  0  0  0  0  0  0  0  0
   -2.6252   -0.4748   -0.1060 N   0  0  0  0  0  0  0  0  0  0  0  0
   -3.7368   -0.5531   -0.1427 N   0  0  0  0  0  0  0  0  0  0  0  0
   -0.6755    0.8947   -0.0398 C   0  0  0  0  0  0  0  0  0  0  0  0
    0.6833    1.0521    0.0061 C   0  0  0  0  0  0  0  0  0  0  0  0
    1.4743   -0.1169    0.0320 C   0  0  0  0  0  0  0  0  0  0  0  0
    0.8999   -1.4002    0.0115 C   0  0  0  0  0  0  0  0  0  0  0  0
   -0.4737   -1.5605   -0.0350 C   0  0  0  0  0  0  0  0  0  0  0  0
   -2.7497    5.1060   -0.0971 H   0  0  0  0  0  0  0  0  0  0  0  0
    1.1573    2.0305    0.0228 H   0  0  0  0  0  0  0  0  0  0  0  0
    2.5563   -0.0143    0.0691 H   0  0  0  0  0  0  0  0  0  0  0  0
    1.5387   -2.2765    0.0326 H   0  0  0  0  0  0  0  0  0  0  0  0
   -0.9466   -2.5383   -0.0516 H   0  0  0  0  0  0  0  0  0  0  0  0
  1  4  2  0  0  0  0
  1  8  1  0  0  0  0
  2  1  1  0  0  0  0
  3  2  1  0  0  0  0
  4  5  1  0  0  0  0
  5 10  1  0  0  0  0
  5  6  2  0  0  0  0
  6 11  1  0  0  0  0
  7  6  1  0  0  0  0
  7 12  1  0  0  0  0
  8  7  2  0  0  0  0
 13  8  1  0  0  0  0
M  RAD  4   2   2   3   3   4   2   9   2
M  END
