Coordinates from ORCA-job PhN2+_B3LYPG-6-31G_dp-d09-49-n800
 OpenBabel11261919563D

 13 12  0  0  0  0  0  0  0  0999 V2000
   -1.2967   -0.1665   -0.0604 C   0  0  0  0  0  0  0  0  0  0  0  0
   -2.6689   -0.2005   -0.1058 N   0  0  0  0  0  0  0  0  0  0  0  0
   -3.7825   -0.2296   -0.1425 N   0  0  0  0  0  0  0  0  0  0  0  0
   -0.6479    1.0666   -0.0371 C   0  0  0  0  0  0  0  0  0  0  0  0
    0.7132    1.1742    0.0083 C   0  0  0  0  0  0  0  0  0  0  0  0
    1.4456   -0.0321    0.0311 C   0  0  0  0  0  0  0  0  0  0  0  0
    0.8121   -1.2862    0.0080 C   0  0  0  0  0  0  0  0  0  0  0  0
   -0.5691   -1.3838   -0.0381 C   0  0  0  0  0  0  0  0  0  0  0  0
   -2.2296    3.2136   -0.0863 H   0  0  0  0  0  0  0  0  0  0  0  0
    1.2195    2.1338    0.0266 H   0  0  0  0  0  0  0  0  0  0  0  0
    2.5308    0.0187    0.0677 H   0  0  0  0  0  0  0  0  0  0  0  0
    1.4087   -2.1916    0.0267 H   0  0  0  0  0  0  0  0  0  0  0  0
   -1.0838   -2.3395   -0.0566 H   0  0  0  0  0  0  0  0  0  0  0  0
  1  8  2  0  0  0  0
  1  4  1  0  0  0  0
  2  1  1  0  0  0  0
  3  2  1  0  0  0  0
  4  5  2  0  0  0  0
  5 10  1  0  0  0  0
  5  6  1  0  0  0  0
  6 11  1  0  0  0  0
  7 12  1  0  0  0  0
  7  6  2  0  0  0  0
  8  7  1  0  0  0  0
 13  8  1  0  0  0  0
M  RAD  4   2   2   3   3   4   2   9   2
M  END
