Coordinates from ORCA-job PhN2+_B3LYPG-6-31G_dp-d09-49-n800
 OpenBabel11261919563D

 13 12  0  0  0  0  0  0  0  0999 V2000
   -1.3352   -0.1151   -0.0616 C   0  0  0  0  0  0  0  0  0  0  0  0
   -2.7059   -0.1703   -0.1069 N   0  0  0  0  0  0  0  0  0  0  0  0
   -3.8194   -0.2162   -0.1437 N   0  0  0  0  0  0  0  0  0  0  0  0
   -0.7140    1.1418   -0.0392 C   0  0  0  0  0  0  0  0  0  0  0  0
    0.6585    1.2283    0.0067 C   0  0  0  0  0  0  0  0  0  0  0  0
    1.4004    0.0338    0.0297 C   0  0  0  0  0  0  0  0  0  0  0  0
    0.7775   -1.2246    0.0069 C   0  0  0  0  0  0  0  0  0  0  0  0
   -0.6040   -1.3258   -0.0392 C   0  0  0  0  0  0  0  0  0  0  0  0
   -1.7110    2.5565   -0.0702 H   0  0  0  0  0  0  0  0  0  0  0  0
    1.1560    2.1910    0.0247 H   0  0  0  0  0  0  0  0  0  0  0  0
    2.4846    0.0893    0.0663 H   0  0  0  0  0  0  0  0  0  0  0  0
    1.3772   -2.1279    0.0256 H   0  0  0  0  0  0  0  0  0  0  0  0
   -1.1131   -2.2836   -0.0575 H   0  0  0  0  0  0  0  0  0  0  0  0
  1  8  2  0  0  0  0
  1  4  1  0  0  0  0
  2  1  1  0  0  0  0
  3  2  1  0  0  0  0
  4  5  2  0  0  0  0
  5 10  1  0  0  0  0
  5  6  1  0  0  0  0
  6 11  1  0  0  0  0
  7 12  1  0  0  0  0
  7  6  2  0  0  0  0
  8  7  1  0  0  0  0
 13  8  1  0  0  0  0
M  RAD  4   2   2   3   3   4   2   9   2
M  END
