Coordinates from ORCA-job PhN2+_B3LYPG-6-31G_dp-d09-49-n800
 OpenBabel11261919563D

 13 12  0  0  0  0  0  0  0  0999 V2000
   -1.2499   -0.3298   -0.0610 C   0  0  0  0  0  0  0  0  0  0  0  0
   -2.6251   -0.4131   -0.1080 N   0  0  0  0  0  0  0  0  0  0  0  0
   -3.7378   -0.4767   -0.1388 N   0  0  0  0  0  0  0  0  0  0  0  0
   -0.6542    0.9274   -0.0396 C   0  0  0  0  0  0  0  0  0  0  0  0
    0.7063    1.0662    0.0070 C   0  0  0  0  0  0  0  0  0  0  0  0
    1.4797   -0.1148    0.0326 C   0  0  0  0  0  0  0  0  0  0  0  0
    0.8863   -1.3893    0.0112 C   0  0  0  0  0  0  0  0  0  0  0  0
   -0.4895   -1.5295   -0.0361 C   0  0  0  0  0  0  0  0  0  0  0  0
   -2.7568    4.8027   -0.0985 H   0  0  0  0  0  0  0  0  0  0  0  0
    1.1939    2.0376    0.0243 H   0  0  0  0  0  0  0  0  0  0  0  0
    2.5631   -0.0283    0.0702 H   0  0  0  0  0  0  0  0  0  0  0  0
    1.5121   -2.2750    0.0320 H   0  0  0  0  0  0  0  0  0  0  0  0
   -0.9765   -2.5003   -0.0535 H   0  0  0  0  0  0  0  0  0  0  0  0
  1  4  2  0  0  0  0
  1  8  1  0  0  0  0
  2  1  1  0  0  0  0
  3  2  1  0  0  0  0
  4  5  1  0  0  0  0
  5 10  1  0  0  0  0
  5  6  2  0  0  0  0
  6 11  1  0  0  0  0
  7 12  1  0  0  0  0
  7  6  1  0  0  0  0
  8  7  2  0  0  0  0
 13  8  1  0  0  0  0
M  RAD  4   2   2   3   3   4   2   9   2
M  END
