Coordinates from ORCA-job PhN2+_B3LYPG-6-31G_dp-d09-49-n800
 OpenBabel11261919553D

 13 13  0  0  0  0  0  0  0  0999 V2000
   -1.3586   -0.0673   -0.0614 C   0  0  0  0  0  0  0  0  0  0  0  0
   -2.7319   -0.1447   -0.1065 N   0  0  0  0  0  0  0  0  0  0  0  0
   -3.8450   -0.2069   -0.1482 N   0  0  0  0  0  0  0  0  0  0  0  0
   -0.7713    1.2165   -0.0401 C   0  0  0  0  0  0  0  0  0  0  0  0
    0.6144    1.2655    0.0052 C   0  0  0  0  0  0  0  0  0  0  0  0
    1.3682    0.0829    0.0281 C   0  0  0  0  0  0  0  0  0  0  0  0
    0.7516   -1.1767    0.0060 C   0  0  0  0  0  0  0  0  0  0  0  0
   -0.6308   -1.2755   -0.0391 C   0  0  0  0  0  0  0  0  0  0  0  0
   -1.3195    2.0227   -0.0568 H   0  0  0  0  0  0  0  0  0  0  0  0
    1.1109    2.2299    0.0229 H   0  0  0  0  0  0  0  0  0  0  0  0
    2.4517    0.1438    0.0640 H   0  0  0  0  0  0  0  0  0  0  0  0
    1.3511   -2.0802    0.0243 H   0  0  0  0  0  0  0  0  0  0  0  0
   -1.1395   -2.2330   -0.0569 H   0  0  0  0  0  0  0  0  0  0  0  0
  1  4  2  0  0  0  0
  1  8  1  0  0  0  0
  2  1  1  0  0  0  0
  3  2  1  0  0  0  0
  4  5  1  0  0  0  0
  5 10  1  0  0  0  0
  5  6  2  0  0  0  0
  6 11  1  0  0  0  0
  7 12  1  0  0  0  0
  7  6  1  0  0  0  0
  8  7  2  0  0  0  0
  9  4  1  0  0  0  0
 13  8  1  0  0  0  0
M  RAD  2   2   2   3   3
M  END
