Coordinates from ORCA-job PhN2+_B3LYPG-6-31G_dp-d09-49-n800
 OpenBabel11261919563D

 13 12  0  0  0  0  0  0  0  0999 V2000
   -1.3146   -0.1456   -0.0610 C   0  0  0  0  0  0  0  0  0  0  0  0
   -2.6858   -0.1857   -0.1063 N   0  0  0  0  0  0  0  0  0  0  0  0
   -3.7993   -0.2200   -0.1430 N   0  0  0  0  0  0  0  0  0  0  0  0
   -0.6736    1.0944   -0.0379 C   0  0  0  0  0  0  0  0  0  0  0  0
    0.6905    1.1990    0.0077 C   0  0  0  0  0  0  0  0  0  0  0  0
    1.4262   -0.0033    0.0305 C   0  0  0  0  0  0  0  0  0  0  0  0
    0.7971   -1.2593    0.0075 C   0  0  0  0  0  0  0  0  0  0  0  0
   -0.5843   -1.3596   -0.0386 C   0  0  0  0  0  0  0  0  0  0  0  0
   -2.0067    2.9272   -0.0795 H   0  0  0  0  0  0  0  0  0  0  0  0
    1.1916    2.1605    0.0258 H   0  0  0  0  0  0  0  0  0  0  0  0
    2.5109    0.0495    0.0671 H   0  0  0  0  0  0  0  0  0  0  0  0
    1.3954   -2.1635    0.0262 H   0  0  0  0  0  0  0  0  0  0  0  0
   -1.0960   -2.3166   -0.0570 H   0  0  0  0  0  0  0  0  0  0  0  0
  1  8  2  0  0  0  0
  1  4  1  0  0  0  0
  2  1  1  0  0  0  0
  3  2  1  0  0  0  0
  4  5  2  0  0  0  0
  5 10  1  0  0  0  0
  5  6  1  0  0  0  0
  6 11  1  0  0  0  0
  7 12  1  0  0  0  0
  7  6  2  0  0  0  0
  8  7  1  0  0  0  0
 13  8  1  0  0  0  0
M  RAD  4   2   2   3   3   4   2   9   2
M  END
