Coordinates from ORCA-job PhN2+_B3LYPG-6-31G_dp-d09-49-n800
 OpenBabel11261919563D

 13 12  0  0  0  0  0  0  0  0999 V2000
   -1.2635   -0.2205   -0.0595 C   0  0  0  0  0  0  0  0  0  0  0  0
   -2.6384   -0.2604   -0.1053 N   0  0  0  0  0  0  0  0  0  0  0  0
   -3.7521   -0.2938   -0.1423 N   0  0  0  0  0  0  0  0  0  0  0  0
   -0.6208    1.0132   -0.0366 C   0  0  0  0  0  0  0  0  0  0  0  0
    0.7400    1.1203    0.0089 C   0  0  0  0  0  0  0  0  0  0  0  0
    1.4764   -0.0849    0.0320 C   0  0  0  0  0  0  0  0  0  0  0  0
    0.8443   -1.3402    0.0093 C   0  0  0  0  0  0  0  0  0  0  0  0
   -0.5358   -1.4398   -0.0369 C   0  0  0  0  0  0  0  0  0  0  0  0
   -2.6041    3.8760   -0.0968 H   0  0  0  0  0  0  0  0  0  0  0  0
    1.2513    2.0788    0.0271 H   0  0  0  0  0  0  0  0  0  0  0  0
    2.5617   -0.0313    0.0687 H   0  0  0  0  0  0  0  0  0  0  0  0
    1.4429   -2.2445    0.0282 H   0  0  0  0  0  0  0  0  0  0  0  0
   -1.0505   -2.3960   -0.0552 H   0  0  0  0  0  0  0  0  0  0  0  0
  1  8  2  0  0  0  0
  1  4  1  0  0  0  0
  2  1  1  0  0  0  0
  3  2  1  0  0  0  0
  4  5  2  0  0  0  0
  5 10  1  0  0  0  0
  5  6  1  0  0  0  0
  6 11  1  0  0  0  0
  7 12  1  0  0  0  0
  7  6  2  0  0  0  0
  8  7  1  0  0  0  0
 13  8  1  0  0  0  0
M  RAD  4   2   2   3   3   4   2   9   2
M  END
