Coordinates from ORCA-job PhN2+_B3LYPG-6-31G_dp-d09-49-n800
 OpenBabel11261919563D

 13 12  0  0  0  0  0  0  0  0999 V2000
   -1.2500   -0.3037   -0.0598 C   0  0  0  0  0  0  0  0  0  0  0  0
   -2.6257   -0.3750   -0.1057 N   0  0  0  0  0  0  0  0  0  0  0  0
   -3.7386   -0.4301   -0.1427 N   0  0  0  0  0  0  0  0  0  0  0  0
   -0.6420    0.9474   -0.0385 C   0  0  0  0  0  0  0  0  0  0  0  0
    0.7190    1.0757    0.0073 C   0  0  0  0  0  0  0  0  0  0  0  0
    1.4821   -0.1121    0.0322 C   0  0  0  0  0  0  0  0  0  0  0  0
    0.8775   -1.3813    0.0108 C   0  0  0  0  0  0  0  0  0  0  0  0
   -0.4996   -1.5096   -0.0356 C   0  0  0  0  0  0  0  0  0  0  0  0
   -2.7522    4.6062   -0.0983 H   0  0  0  0  0  0  0  0  0  0  0  0
    1.2144    2.0432    0.0247 H   0  0  0  0  0  0  0  0  0  0  0  0
    2.5661   -0.0349    0.0692 H   0  0  0  0  0  0  0  0  0  0  0  0
    1.4955   -2.2725    0.0310 H   0  0  0  0  0  0  0  0  0  0  0  0
   -0.9950   -2.4761   -0.0530 H   0  0  0  0  0  0  0  0  0  0  0  0
  1  4  2  0  0  0  0
  1  8  1  0  0  0  0
  2  1  1  0  0  0  0
  3  2  1  0  0  0  0
  4  5  1  0  0  0  0
  5 10  1  0  0  0  0
  5  6  2  0  0  0  0
  6 11  1  0  0  0  0
  7 12  1  0  0  0  0
  7  6  1  0  0  0  0
  8  7  2  0  0  0  0
 13  8  1  0  0  0  0
M  RAD  4   2   2   3   3   4   2   9   2
M  END
