Coordinates from ORCA-job PhN2+_B3LYPG-6-31G_dp-d09-49-n800
 OpenBabel11261919563D

 13 12  0  0  0  0  0  0  0  0999 V2000
   -1.2659   -0.2141   -0.0597 C   0  0  0  0  0  0  0  0  0  0  0  0
   -2.6407   -0.2525   -0.1054 N   0  0  0  0  0  0  0  0  0  0  0  0
   -3.7544   -0.2846   -0.1415 N   0  0  0  0  0  0  0  0  0  0  0  0
   -0.6215    1.0190   -0.0366 C   0  0  0  0  0  0  0  0  0  0  0  0
    0.7395    1.1253    0.0090 C   0  0  0  0  0  0  0  0  0  0  0  0
    1.4745   -0.0808    0.0321 C   0  0  0  0  0  0  0  0  0  0  0  0
    0.8412   -1.3354    0.0091 C   0  0  0  0  0  0  0  0  0  0  0  0
   -0.5391   -1.4338   -0.0372 C   0  0  0  0  0  0  0  0  0  0  0  0
   -2.5777    3.8091   -0.0966 H   0  0  0  0  0  0  0  0  0  0  0  0
    1.2512    2.0834    0.0273 H   0  0  0  0  0  0  0  0  0  0  0  0
    2.5599   -0.0284    0.0689 H   0  0  0  0  0  0  0  0  0  0  0  0
    1.4388   -2.2403    0.0280 H   0  0  0  0  0  0  0  0  0  0  0  0
   -1.0544   -2.3897   -0.0556 H   0  0  0  0  0  0  0  0  0  0  0  0
  1  8  2  0  0  0  0
  1  4  1  0  0  0  0
  2  1  1  0  0  0  0
  3  2  1  0  0  0  0
  4  5  2  0  0  0  0
  5 10  1  0  0  0  0
  5  6  1  0  0  0  0
  6 11  1  0  0  0  0
  7 12  1  0  0  0  0
  7  6  2  0  0  0  0
  8  7  1  0  0  0  0
 13  8  1  0  0  0  0
M  RAD  4   2   2   3   3   4   2   9   2
M  END
