Coordinates from ORCA-job PhN2+_B3LYPG-6-31G_dp-d09-49-n800
 OpenBabel11261919563D

 13 12  0  0  0  0  0  0  0  0999 V2000
   -1.2508   -0.3709   -0.0601 C   0  0  0  0  0  0  0  0  0  0  0  0
   -2.6252   -0.4734   -0.1060 N   0  0  0  0  0  0  0  0  0  0  0  0
   -3.7368   -0.5513   -0.1428 N   0  0  0  0  0  0  0  0  0  0  0  0
   -0.6749    0.8952   -0.0398 C   0  0  0  0  0  0  0  0  0  0  0  0
    0.6839    1.0524    0.0061 C   0  0  0  0  0  0  0  0  0  0  0  0
    1.4745   -0.1169    0.0320 C   0  0  0  0  0  0  0  0  0  0  0  0
    0.8996   -1.4000    0.0115 C   0  0  0  0  0  0  0  0  0  0  0  0
   -0.4740   -1.5600   -0.0350 C   0  0  0  0  0  0  0  0  0  0  0  0
   -2.7504    5.1003   -0.0971 H   0  0  0  0  0  0  0  0  0  0  0  0
    1.1582    2.0307    0.0228 H   0  0  0  0  0  0  0  0  0  0  0  0
    2.5565   -0.0148    0.0690 H   0  0  0  0  0  0  0  0  0  0  0  0
    1.5381   -2.2765    0.0325 H   0  0  0  0  0  0  0  0  0  0  0  0
   -0.9471   -2.5377   -0.0516 H   0  0  0  0  0  0  0  0  0  0  0  0
  1  4  2  0  0  0  0
  1  8  1  0  0  0  0
  2  1  1  0  0  0  0
  3  2  1  0  0  0  0
  4  5  1  0  0  0  0
  5 10  1  0  0  0  0
  5  6  2  0  0  0  0
  6 11  1  0  0  0  0
  7  6  1  0  0  0  0
  7 12  1  0  0  0  0
  8  7  2  0  0  0  0
 13  8  1  0  0  0  0
M  RAD  4   2   2   3   3   4   2   9   2
M  END
