Coordinates from ORCA-job PhN2+_B3LYPG-6-31G_dp-d09-49-n800
 OpenBabel11261919563D

 13 12  0  0  0  0  0  0  0  0999 V2000
   -1.2529   -0.2654   -0.0596 C   0  0  0  0  0  0  0  0  0  0  0  0
   -2.6286   -0.3208   -0.1054 N   0  0  0  0  0  0  0  0  0  0  0  0
   -3.7420   -0.3645   -0.1423 N   0  0  0  0  0  0  0  0  0  0  0  0
   -0.6277    0.9771   -0.0375 C   0  0  0  0  0  0  0  0  0  0  0  0
    0.7337    1.0927    0.0082 C   0  0  0  0  0  0  0  0  0  0  0  0
    1.4828   -0.1043    0.0322 C   0  0  0  0  0  0  0  0  0  0  0  0
    0.8636   -1.3663    0.0101 C   0  0  0  0  0  0  0  0  0  0  0  0
   -0.5151   -1.4790   -0.0362 C   0  0  0  0  0  0  0  0  0  0  0  0
   -2.7187    4.2968   -0.0987 H   0  0  0  0  0  0  0  0  0  0  0  0
    1.2386    2.0550    0.0260 H   0  0  0  0  0  0  0  0  0  0  0  0
    2.5676   -0.0397    0.0691 H   0  0  0  0  0  0  0  0  0  0  0  0
    1.4712   -2.2645    0.0298 H   0  0  0  0  0  0  0  0  0  0  0  0
   -1.0211   -2.4400   -0.0540 H   0  0  0  0  0  0  0  0  0  0  0  0
  1  4  2  0  0  0  0
  1  8  1  0  0  0  0
  2  1  1  0  0  0  0
  3  2  1  0  0  0  0
  4  5  1  0  0  0  0
  5 10  1  0  0  0  0
  5  6  2  0  0  0  0
  6 11  1  0  0  0  0
  7 12  1  0  0  0  0
  7  6  1  0  0  0  0
  8  7  2  0  0  0  0
 13  8  1  0  0  0  0
M  RAD  4   2   2   3   3   4   2   9   2
M  END
