Coordinates from ORCA-job PhN2+_B3LYPG-6-31G_dp-d09-49-n800
 OpenBabel11261919563D

 13 12  0  0  0  0  0  0  0  0999 V2000
   -1.2574   -0.2409   -0.0595 C   0  0  0  0  0  0  0  0  0  0  0  0
   -2.6328   -0.2874   -0.1052 N   0  0  0  0  0  0  0  0  0  0  0  0
   -3.7464   -0.3253   -0.1421 N   0  0  0  0  0  0  0  0  0  0  0  0
   -0.6224    0.9968   -0.0370 C   0  0  0  0  0  0  0  0  0  0  0  0
    0.7390    1.1064    0.0086 C   0  0  0  0  0  0  0  0  0  0  0  0
    1.4805   -0.0954    0.0322 C   0  0  0  0  0  0  0  0  0  0  0  0
    0.8536   -1.3534    0.0097 C   0  0  0  0  0  0  0  0  0  0  0  0
   -0.5259   -1.4581   -0.0366 C   0  0  0  0  0  0  0  0  0  0  0  0
   -2.6687    4.0770   -0.0982 H   0  0  0  0  0  0  0  0  0  0  0  0
    1.2482    2.0662    0.0267 H   0  0  0  0  0  0  0  0  0  0  0  0
    2.5656   -0.0374    0.0690 H   0  0  0  0  0  0  0  0  0  0  0  0
    1.4557   -2.2553    0.0289 H   0  0  0  0  0  0  0  0  0  0  0  0
   -1.0373   -2.4162   -0.0548 H   0  0  0  0  0  0  0  0  0  0  0  0
  1  4  2  0  0  0  0
  1  8  1  0  0  0  0
  2  1  1  0  0  0  0
  3  2  1  0  0  0  0
  4  5  1  0  0  0  0
  5 10  1  0  0  0  0
  5  6  2  0  0  0  0
  6 11  1  0  0  0  0
  7 12  1  0  0  0  0
  7  6  1  0  0  0  0
  8  7  2  0  0  0  0
 13  8  1  0  0  0  0
M  RAD  4   2   2   3   3   4   2   9   2
M  END
