Coordinates from ORCA-job PhN2+_B3LYPG-6-31G_dp-d09-49-n800
 OpenBabel11261919563D

 13 12  0  0  0  0  0  0  0  0999 V2000
   -1.2682   -0.2089   -0.0598 C   0  0  0  0  0  0  0  0  0  0  0  0
   -2.6427   -0.2460   -0.1056 N   0  0  0  0  0  0  0  0  0  0  0  0
   -3.7565   -0.2772   -0.1412 N   0  0  0  0  0  0  0  0  0  0  0  0
   -0.6222    1.0235   -0.0366 C   0  0  0  0  0  0  0  0  0  0  0  0
    0.7387    1.1296    0.0090 C   0  0  0  0  0  0  0  0  0  0  0  0
    1.4726   -0.0771    0.0320 C   0  0  0  0  0  0  0  0  0  0  0  0
    0.8385   -1.3312    0.0090 C   0  0  0  0  0  0  0  0  0  0  0  0
   -0.5419   -1.4288   -0.0373 C   0  0  0  0  0  0  0  0  0  0  0  0
   -2.5531    3.7519   -0.0961 H   0  0  0  0  0  0  0  0  0  0  0  0
    1.2505    2.0875    0.0274 H   0  0  0  0  0  0  0  0  0  0  0  0
    2.5580   -0.0255    0.0689 H   0  0  0  0  0  0  0  0  0  0  0  0
    1.4355   -2.2365    0.0278 H   0  0  0  0  0  0  0  0  0  0  0  0
   -1.0577   -2.3844   -0.0559 H   0  0  0  0  0  0  0  0  0  0  0  0
  1  8  2  0  0  0  0
  1  4  1  0  0  0  0
  2  1  1  0  0  0  0
  3  2  1  0  0  0  0
  4  5  2  0  0  0  0
  5 10  1  0  0  0  0
  5  6  1  0  0  0  0
  6 11  1  0  0  0  0
  7 12  1  0  0  0  0
  7  6  2  0  0  0  0
  8  7  1  0  0  0  0
 13  8  1  0  0  0  0
M  RAD  4   2   2   3   3   4   2   9   2
M  END
