Coordinates from ORCA-job PhN2+_B3LYPG-6-31G_dp-d09-49-n800
 OpenBabel11261919563D

 13 12  0  0  0  0  0  0  0  0999 V2000
   -1.2640   -0.2188   -0.0596 C   0  0  0  0  0  0  0  0  0  0  0  0
   -2.6389   -0.2585   -0.1052 N   0  0  0  0  0  0  0  0  0  0  0  0
   -3.7525   -0.2916   -0.1420 N   0  0  0  0  0  0  0  0  0  0  0  0
   -0.6212    1.0151   -0.0366 C   0  0  0  0  0  0  0  0  0  0  0  0
    0.7397    1.1215    0.0089 C   0  0  0  0  0  0  0  0  0  0  0  0
    1.4757   -0.0838    0.0320 C   0  0  0  0  0  0  0  0  0  0  0  0
    0.8436   -1.3390    0.0092 C   0  0  0  0  0  0  0  0  0  0  0  0
   -0.5366   -1.4382   -0.0370 C   0  0  0  0  0  0  0  0  0  0  0  0
   -2.5969    3.8588   -0.0968 H   0  0  0  0  0  0  0  0  0  0  0  0
    1.2512    2.0798    0.0272 H   0  0  0  0  0  0  0  0  0  0  0  0
    2.5611   -0.0304    0.0688 H   0  0  0  0  0  0  0  0  0  0  0  0
    1.4419   -2.2434    0.0281 H   0  0  0  0  0  0  0  0  0  0  0  0
   -1.0516   -2.3943   -0.0554 H   0  0  0  0  0  0  0  0  0  0  0  0
  1  8  2  0  0  0  0
  1  4  1  0  0  0  0
  2  1  1  0  0  0  0
  3  2  1  0  0  0  0
  4  5  2  0  0  0  0
  5 10  1  0  0  0  0
  5  6  1  0  0  0  0
  6 11  1  0  0  0  0
  7 12  1  0  0  0  0
  7  6  2  0  0  0  0
  8  7  1  0  0  0  0
 13  8  1  0  0  0  0
M  RAD  4   2   2   3   3   4   2   9   2
M  END
