Coordinates from ORCA-job PhN2+_B3LYPG-6-31G_dp-d09-49-n800
 OpenBabel11261919563D

 13 12  0  0  0  0  0  0  0  0999 V2000
   -1.3121   -0.1488   -0.0609 C   0  0  0  0  0  0  0  0  0  0  0  0
   -2.6833   -0.1877   -0.1062 N   0  0  0  0  0  0  0  0  0  0  0  0
   -3.7968   -0.2211   -0.1429 N   0  0  0  0  0  0  0  0  0  0  0  0
   -0.6695    1.0899   -0.0377 C   0  0  0  0  0  0  0  0  0  0  0  0
    0.6940    1.1954    0.0078 C   0  0  0  0  0  0  0  0  0  0  0  0
    1.4291   -0.0076    0.0306 C   0  0  0  0  0  0  0  0  0  0  0  0
    0.7993   -1.2633    0.0076 C   0  0  0  0  0  0  0  0  0  0  0  0
   -0.5820   -1.3632   -0.0385 C   0  0  0  0  0  0  0  0  0  0  0  0
   -2.0402    2.9696   -0.0805 H   0  0  0  0  0  0  0  0  0  0  0  0
    1.1957    2.1567    0.0259 H   0  0  0  0  0  0  0  0  0  0  0  0
    2.5139    0.0450    0.0672 H   0  0  0  0  0  0  0  0  0  0  0  0
    1.3974   -2.1677    0.0262 H   0  0  0  0  0  0  0  0  0  0  0  0
   -1.0941   -2.3201   -0.0569 H   0  0  0  0  0  0  0  0  0  0  0  0
  1  8  2  0  0  0  0
  1  4  1  0  0  0  0
  2  1  1  0  0  0  0
  3  2  1  0  0  0  0
  4  5  2  0  0  0  0
  5 10  1  0  0  0  0
  5  6  1  0  0  0  0
  6 11  1  0  0  0  0
  7 12  1  0  0  0  0
  7  6  2  0  0  0  0
  8  7  1  0  0  0  0
 13  8  1  0  0  0  0
M  RAD  4   2   2   3   3   4   2   9   2
M  END
