Coordinates from ORCA-job PhN2+_B3LYPG-6-31G_dp-d09-49-n800
 OpenBabel11261919553D

 13 12  0  0  0  0  0  0  0  0999 V2000
   -1.3420   -0.1020   -0.0618 C   0  0  0  0  0  0  0  0  0  0  0  0
   -2.7132   -0.1645   -0.1071 N   0  0  0  0  0  0  0  0  0  0  0  0
   -3.8267   -0.2160   -0.1440 N   0  0  0  0  0  0  0  0  0  0  0  0
   -0.7309    1.1632   -0.0396 C   0  0  0  0  0  0  0  0  0  0  0  0
    0.6459    1.2386    0.0063 C   0  0  0  0  0  0  0  0  0  0  0  0
    1.3909    0.0477    0.0294 C   0  0  0  0  0  0  0  0  0  0  0  0
    0.7700   -1.2114    0.0067 C   0  0  0  0  0  0  0  0  0  0  0  0
   -0.6115   -1.3119   -0.0394 C   0  0  0  0  0  0  0  0  0  0  0  0
   -1.5986    2.4119   -0.0667 H   0  0  0  0  0  0  0  0  0  0  0  0
    1.1432    2.2014    0.0243 H   0  0  0  0  0  0  0  0  0  0  0  0
    2.4749    0.1044    0.0659 H   0  0  0  0  0  0  0  0  0  0  0  0
    1.3698   -2.1146    0.0254 H   0  0  0  0  0  0  0  0  0  0  0  0
   -1.1204   -2.2697   -0.0577 H   0  0  0  0  0  0  0  0  0  0  0  0
  1  4  2  0  0  0  0
  1  8  1  0  0  0  0
  2  1  1  0  0  0  0
  3  2  1  0  0  0  0
  4  5  1  0  0  0  0
  5 10  1  0  0  0  0
  5  6  2  0  0  0  0
  6 11  1  0  0  0  0
  7 12  1  0  0  0  0
  7  6  1  0  0  0  0
  8  7  2  0  0  0  0
 13  8  1  0  0  0  0
M  RAD  4   2   2   3   3   4   2   9   2
M  END
