Coordinates from ORCA-job PhN2+_B3LYPG-6-31G_dp-d09-49-n800
 OpenBabel11261919563D

 13 12  0  0  0  0  0  0  0  0999 V2000
   -1.2734   -0.1984   -0.0597 C   0  0  0  0  0  0  0  0  0  0  0  0
   -2.6474   -0.2334   -0.1052 N   0  0  0  0  0  0  0  0  0  0  0  0
   -3.7611   -0.2632   -0.1420 N   0  0  0  0  0  0  0  0  0  0  0  0
   -0.6251    1.0331   -0.0365 C   0  0  0  0  0  0  0  0  0  0  0  0
    0.7356    1.1388    0.0090 C   0  0  0  0  0  0  0  0  0  0  0  0
    1.4681   -0.0686    0.0318 C   0  0  0  0  0  0  0  0  0  0  0  0
    0.8329   -1.3221    0.0088 C   0  0  0  0  0  0  0  0  0  0  0  0
   -0.5478   -1.4185   -0.0374 C   0  0  0  0  0  0  0  0  0  0  0  0
   -2.4956    3.6324   -0.0944 H   0  0  0  0  0  0  0  0  0  0  0  0
    1.2472    2.0966    0.0274 H   0  0  0  0  0  0  0  0  0  0  0  0
    2.5535   -0.0181    0.0685 H   0  0  0  0  0  0  0  0  0  0  0  0
    1.4290   -2.2280    0.0275 H   0  0  0  0  0  0  0  0  0  0  0  0
   -1.0643   -2.3736   -0.0559 H   0  0  0  0  0  0  0  0  0  0  0  0
  1  8  2  0  0  0  0
  1  4  1  0  0  0  0
  2  1  1  0  0  0  0
  3  2  1  0  0  0  0
  4  5  2  0  0  0  0
  5 10  1  0  0  0  0
  5  6  1  0  0  0  0
  6 11  1  0  0  0  0
  7 12  1  0  0  0  0
  7  6  2  0  0  0  0
  8  7  1  0  0  0  0
 13  8  1  0  0  0  0
M  RAD  4   2   2   3   3   4   2   9   2
M  END
