Coordinates from ORCA-job PhN2+_B3LYPG-6-31G_dp-d09-49-n800
 OpenBabel11261919553D

 13 13  0  0  0  0  0  0  0  0999 V2000
   -1.3475   -0.0904   -0.0619 C   0  0  0  0  0  0  0  0  0  0  0  0
   -2.7193   -0.1591   -0.1072 N   0  0  0  0  0  0  0  0  0  0  0  0
   -3.8327   -0.2152   -0.1445 N   0  0  0  0  0  0  0  0  0  0  0  0
   -0.7451    1.1821   -0.0400 C   0  0  0  0  0  0  0  0  0  0  0  0
    0.6353    1.2472    0.0059 C   0  0  0  0  0  0  0  0  0  0  0  0
    1.3831    0.0593    0.0291 C   0  0  0  0  0  0  0  0  0  0  0  0
    0.7638   -1.2001    0.0065 C   0  0  0  0  0  0  0  0  0  0  0  0
   -0.6179   -1.2997   -0.0395 C   0  0  0  0  0  0  0  0  0  0  0  0
   -1.5045    2.2865   -0.0636 H   0  0  0  0  0  0  0  0  0  0  0  0
    1.1328    2.2102    0.0239 H   0  0  0  0  0  0  0  0  0  0  0  0
    2.4669    0.1173    0.0656 H   0  0  0  0  0  0  0  0  0  0  0  0
    1.3635   -2.1034    0.0252 H   0  0  0  0  0  0  0  0  0  0  0  0
   -1.1268   -2.2574   -0.0577 H   0  0  0  0  0  0  0  0  0  0  0  0
  1  4  2  0  0  0  0
  1  8  1  0  0  0  0
  2  1  1  0  0  0  0
  3  2  1  0  0  0  0
  4  5  1  0  0  0  0
  5 10  1  0  0  0  0
  5  6  2  0  0  0  0
  6 11  1  0  0  0  0
  7 12  1  0  0  0  0
  7  6  1  0  0  0  0
  8  7  2  0  0  0  0
  9  4  1  0  0  0  0
 13  8  1  0  0  0  0
M  RAD  2   2   2   3   3
M  END
