Coordinates from ORCA-job PhN2+_B3LYPG-6-31G_dp-d09-49-n800
 OpenBabel11261919563D

 13 12  0  0  0  0  0  0  0  0999 V2000
   -1.3142   -0.1461   -0.0609 C   0  0  0  0  0  0  0  0  0  0  0  0
   -2.6853   -0.1860   -0.1063 N   0  0  0  0  0  0  0  0  0  0  0  0
   -3.7989   -0.2202   -0.1429 N   0  0  0  0  0  0  0  0  0  0  0  0
   -0.6729    1.0937   -0.0379 C   0  0  0  0  0  0  0  0  0  0  0  0
    0.6911    1.1984    0.0077 C   0  0  0  0  0  0  0  0  0  0  0  0
    1.4267   -0.0040    0.0305 C   0  0  0  0  0  0  0  0  0  0  0  0
    0.7975   -1.2600    0.0076 C   0  0  0  0  0  0  0  0  0  0  0  0
   -0.5839   -1.3602   -0.0386 C   0  0  0  0  0  0  0  0  0  0  0  0
   -2.0123    2.9342   -0.0797 H   0  0  0  0  0  0  0  0  0  0  0  0
    1.1923    2.1599    0.0258 H   0  0  0  0  0  0  0  0  0  0  0  0
    2.5114    0.0488    0.0671 H   0  0  0  0  0  0  0  0  0  0  0  0
    1.3958   -2.1642    0.0262 H   0  0  0  0  0  0  0  0  0  0  0  0
   -1.0956   -2.3172   -0.0570 H   0  0  0  0  0  0  0  0  0  0  0  0
  1  8  2  0  0  0  0
  1  4  1  0  0  0  0
  2  1  1  0  0  0  0
  3  2  1  0  0  0  0
  4  5  2  0  0  0  0
  5 10  1  0  0  0  0
  5  6  1  0  0  0  0
  6 11  1  0  0  0  0
  7 12  1  0  0  0  0
  7  6  2  0  0  0  0
  8  7  1  0  0  0  0
 13  8  1  0  0  0  0
M  RAD  4   2   2   3   3   4   2   9   2
M  END
