Coordinates from ORCA-job PhN2+_B3LYPG-6-31G_dp-d09-49-n800
 OpenBabel11261919563D

 13 12  0  0  0  0  0  0  0  0999 V2000
   -1.3220   -0.1357   -0.0612 C   0  0  0  0  0  0  0  0  0  0  0  0
   -2.6929   -0.1801   -0.1065 N   0  0  0  0  0  0  0  0  0  0  0  0
   -3.8064   -0.2178   -0.1432 N   0  0  0  0  0  0  0  0  0  0  0  0
   -0.6865    1.1090   -0.0383 C   0  0  0  0  0  0  0  0  0  0  0  0
    0.6798    1.2094    0.0073 C   0  0  0  0  0  0  0  0  0  0  0  0
    1.4174    0.0095    0.0302 C   0  0  0  0  0  0  0  0  0  0  0  0
    0.7904   -1.2475    0.0074 C   0  0  0  0  0  0  0  0  0  0  0  0
   -0.5910   -1.3484   -0.0388 C   0  0  0  0  0  0  0  0  0  0  0  0
   -1.9063    2.8013   -0.0762 H   0  0  0  0  0  0  0  0  0  0  0  0
    1.1792    2.1715    0.0253 H   0  0  0  0  0  0  0  0  0  0  0  0
    2.5020    0.0632    0.0668 H   0  0  0  0  0  0  0  0  0  0  0  0
    1.3894   -2.1512    0.0260 H   0  0  0  0  0  0  0  0  0  0  0  0
   -1.1015   -2.3059   -0.0571 H   0  0  0  0  0  0  0  0  0  0  0  0
  1  8  2  0  0  0  0
  1  4  1  0  0  0  0
  2  1  1  0  0  0  0
  3  2  1  0  0  0  0
  4  5  2  0  0  0  0
  5 10  1  0  0  0  0
  5  6  1  0  0  0  0
  6 11  1  0  0  0  0
  7 12  1  0  0  0  0
  7  6  2  0  0  0  0
  8  7  1  0  0  0  0
 13  8  1  0  0  0  0
M  RAD  4   2   2   3   3   4   2   9   2
M  END
