Coordinates from ORCA-job PhN2+_B3LYPG-6-31G_dp-d09-49-n800
 OpenBabel11261919563D

 13 12  0  0  0  0  0  0  0  0999 V2000
   -1.2899   -0.1741   -0.0604 C   0  0  0  0  0  0  0  0  0  0  0  0
   -2.6625   -0.2071   -0.1060 N   0  0  0  0  0  0  0  0  0  0  0  0
   -3.7762   -0.2354   -0.1416 N   0  0  0  0  0  0  0  0  0  0  0  0
   -0.6399    1.0578   -0.0369 C   0  0  0  0  0  0  0  0  0  0  0  0
    0.7209    1.1648    0.0087 C   0  0  0  0  0  0  0  0  0  0  0  0
    1.4524   -0.0426    0.0314 C   0  0  0  0  0  0  0  0  0  0  0  0
    0.8176   -1.2960    0.0082 C   0  0  0  0  0  0  0  0  0  0  0  0
   -0.5635   -1.3926   -0.0380 C   0  0  0  0  0  0  0  0  0  0  0  0
   -2.3086    3.3210   -0.0891 H   0  0  0  0  0  0  0  0  0  0  0  0
    1.2292    2.1236    0.0271 H   0  0  0  0  0  0  0  0  0  0  0  0
    2.5377    0.0076    0.0682 H   0  0  0  0  0  0  0  0  0  0  0  0
    1.4136   -2.2020    0.0269 H   0  0  0  0  0  0  0  0  0  0  0  0
   -1.0793   -2.3479   -0.0567 H   0  0  0  0  0  0  0  0  0  0  0  0
  1  8  2  0  0  0  0
  1  4  1  0  0  0  0
  2  1  1  0  0  0  0
  3  2  1  0  0  0  0
  4  5  2  0  0  0  0
  5 10  1  0  0  0  0
  5  6  1  0  0  0  0
  6 11  1  0  0  0  0
  7 12  1  0  0  0  0
  7  6  2  0  0  0  0
  8  7  1  0  0  0  0
 13  8  1  0  0  0  0
M  RAD  4   2   2   3   3   4   2   9   2
M  END
