Coordinates from ORCA-job PhN2+_B3LYPG-6-31G_dp-d09-49-n800
 OpenBabel11261919553D

 13 13  0  0  0  0  0  0  0  0999 V2000
   -1.3463   -0.0930   -0.0619 C   0  0  0  0  0  0  0  0  0  0  0  0
   -2.7180   -0.1604   -0.1072 N   0  0  0  0  0  0  0  0  0  0  0  0
   -3.8313   -0.2155   -0.1443 N   0  0  0  0  0  0  0  0  0  0  0  0
   -0.7420    1.1779   -0.0400 C   0  0  0  0  0  0  0  0  0  0  0  0
    0.6376    1.2453    0.0060 C   0  0  0  0  0  0  0  0  0  0  0  0
    1.3848    0.0567    0.0291 C   0  0  0  0  0  0  0  0  0  0  0  0
    0.7652   -1.2026    0.0065 C   0  0  0  0  0  0  0  0  0  0  0  0
   -0.6165   -1.3024   -0.0395 C   0  0  0  0  0  0  0  0  0  0  0  0
   -1.5253    2.3145   -0.0643 H   0  0  0  0  0  0  0  0  0  0  0  0
    1.1351    2.2083    0.0240 H   0  0  0  0  0  0  0  0  0  0  0  0
    2.4686    0.1144    0.0657 H   0  0  0  0  0  0  0  0  0  0  0  0
    1.3649   -2.1059    0.0252 H   0  0  0  0  0  0  0  0  0  0  0  0
   -1.1254   -2.2601   -0.0577 H   0  0  0  0  0  0  0  0  0  0  0  0
  1  4  2  0  0  0  0
  1  8  1  0  0  0  0
  2  1  1  0  0  0  0
  3  2  1  0  0  0  0
  4  5  1  0  0  0  0
  5 10  1  0  0  0  0
  5  6  2  0  0  0  0
  6 11  1  0  0  0  0
  7 12  1  0  0  0  0
  7  6  1  0  0  0  0
  8  7  2  0  0  0  0
  9  4  1  0  0  0  0
 13  8  1  0  0  0  0
M  RAD  2   2   2   3   3
M  END
