Coordinates from ORCA-job PhN2+_B3LYPG-6-31G_dp-d09-49-n800
 OpenBabel11261919563D

 13 12  0  0  0  0  0  0  0  0999 V2000
   -1.3172   -0.1423   -0.0610 C   0  0  0  0  0  0  0  0  0  0  0  0
   -2.6882   -0.1837   -0.1064 N   0  0  0  0  0  0  0  0  0  0  0  0
   -3.8017   -0.2191   -0.1431 N   0  0  0  0  0  0  0  0  0  0  0  0
   -0.6778    1.0991   -0.0380 C   0  0  0  0  0  0  0  0  0  0  0  0
    0.6870    1.2025    0.0076 C   0  0  0  0  0  0  0  0  0  0  0  0
    1.4232    0.0010    0.0304 C   0  0  0  0  0  0  0  0  0  0  0  0
    0.7948   -1.2554    0.0075 C   0  0  0  0  0  0  0  0  0  0  0  0
   -0.5865   -1.3559   -0.0386 C   0  0  0  0  0  0  0  0  0  0  0  0
   -1.9732    2.8850   -0.0784 H   0  0  0  0  0  0  0  0  0  0  0  0
    1.1874    2.1642    0.0256 H   0  0  0  0  0  0  0  0  0  0  0  0
    2.5079    0.0541    0.0670 H   0  0  0  0  0  0  0  0  0  0  0  0
    1.3934   -2.1594    0.0261 H   0  0  0  0  0  0  0  0  0  0  0  0
   -1.0978   -2.3131   -0.0570 H   0  0  0  0  0  0  0  0  0  0  0  0
  1  8  2  0  0  0  0
  1  4  1  0  0  0  0
  2  1  1  0  0  0  0
  3  2  1  0  0  0  0
  4  5  2  0  0  0  0
  5 10  1  0  0  0  0
  5  6  1  0  0  0  0
  6 11  1  0  0  0  0
  7 12  1  0  0  0  0
  7  6  2  0  0  0  0
  8  7  1  0  0  0  0
 13  8  1  0  0  0  0
M  RAD  4   2   2   3   3   4   2   9   2
M  END
