Coordinates from ORCA-job PhN2+_B3LYPG-6-31G_dp-d09-49-n800
 OpenBabel11261919563D

 13 12  0  0  0  0  0  0  0  0999 V2000
   -1.2906   -0.1731   -0.0602 C   0  0  0  0  0  0  0  0  0  0  0  0
   -2.6632   -0.2064   -0.1057 N   0  0  0  0  0  0  0  0  0  0  0  0
   -3.7768   -0.2351   -0.1425 N   0  0  0  0  0  0  0  0  0  0  0  0
   -0.6405    1.0587   -0.0369 C   0  0  0  0  0  0  0  0  0  0  0  0
    0.7202    1.1658    0.0086 C   0  0  0  0  0  0  0  0  0  0  0  0
    1.4518   -0.0415    0.0313 C   0  0  0  0  0  0  0  0  0  0  0  0
    0.8170   -1.2950    0.0082 C   0  0  0  0  0  0  0  0  0  0  0  0
   -0.5641   -1.3915   -0.0379 C   0  0  0  0  0  0  0  0  0  0  0  0
   -2.3006    3.3096   -0.0885 H   0  0  0  0  0  0  0  0  0  0  0  0
    1.2283    2.1247    0.0269 H   0  0  0  0  0  0  0  0  0  0  0  0
    2.5371    0.0086    0.0680 H   0  0  0  0  0  0  0  0  0  0  0  0
    1.4129   -2.2009    0.0269 H   0  0  0  0  0  0  0  0  0  0  0  0
   -1.0799   -2.3468   -0.0564 H   0  0  0  0  0  0  0  0  0  0  0  0
  1  8  2  0  0  0  0
  1  4  1  0  0  0  0
  2  1  1  0  0  0  0
  3  2  1  0  0  0  0
  4  5  2  0  0  0  0
  5 10  1  0  0  0  0
  5  6  1  0  0  0  0
  6 11  1  0  0  0  0
  7 12  1  0  0  0  0
  7  6  2  0  0  0  0
  8  7  1  0  0  0  0
 13  8  1  0  0  0  0
M  RAD  4   2   2   3   3   4   2   9   2
M  END
