Coordinates from ORCA-job PhN2+_B3LYPG-6-31G_dp-d09-49-n800
 OpenBabel11261919563D

 13 12  0  0  0  0  0  0  0  0999 V2000
   -1.2973   -0.1655   -0.0604 C   0  0  0  0  0  0  0  0  0  0  0  0
   -2.6695   -0.1996   -0.1061 N   0  0  0  0  0  0  0  0  0  0  0  0
   -3.7831   -0.2288   -0.1431 N   0  0  0  0  0  0  0  0  0  0  0  0
   -0.6485    1.0675   -0.0373 C   0  0  0  0  0  0  0  0  0  0  0  0
    0.7127    1.1752    0.0081 C   0  0  0  0  0  0  0  0  0  0  0  0
    1.4450   -0.0311    0.0309 C   0  0  0  0  0  0  0  0  0  0  0  0
    0.8115   -1.2851    0.0082 C   0  0  0  0  0  0  0  0  0  0  0  0
   -0.5697   -1.3828   -0.0379 C   0  0  0  0  0  0  0  0  0  0  0  0
   -2.2222    3.2018   -0.0852 H   0  0  0  0  0  0  0  0  0  0  0  0
    1.2188    2.1349    0.0263 H   0  0  0  0  0  0  0  0  0  0  0  0
    2.5302    0.0196    0.0675 H   0  0  0  0  0  0  0  0  0  0  0  0
    1.4080   -2.1906    0.0269 H   0  0  0  0  0  0  0  0  0  0  0  0
   -1.0844   -2.3386   -0.0562 H   0  0  0  0  0  0  0  0  0  0  0  0
  1  8  2  0  0  0  0
  1  4  1  0  0  0  0
  2  1  1  0  0  0  0
  3  2  1  0  0  0  0
  4  5  2  0  0  0  0
  5 10  1  0  0  0  0
  5  6  1  0  0  0  0
  6 11  1  0  0  0  0
  7 12  1  0  0  0  0
  7  6  2  0  0  0  0
  8  7  1  0  0  0  0
 13  8  1  0  0  0  0
M  RAD  4   2   2   3   3   4   2   9   2
M  END
