Coordinates from ORCA-job PhN2+_B3LYPG-6-31G_dp-d09-49-n800
 OpenBabel11261919563D

 13 12  0  0  0  0  0  0  0  0999 V2000
   -1.2498   -0.3311   -0.0601 C   0  0  0  0  0  0  0  0  0  0  0  0
   -2.6251   -0.4149   -0.1060 N   0  0  0  0  0  0  0  0  0  0  0  0
   -3.7376   -0.4789   -0.1429 N   0  0  0  0  0  0  0  0  0  0  0  0
   -0.6547    0.9261   -0.0392 C   0  0  0  0  0  0  0  0  0  0  0  0
    0.7056    1.0656    0.0067 C   0  0  0  0  0  0  0  0  0  0  0  0
    1.4796   -0.1150    0.0322 C   0  0  0  0  0  0  0  0  0  0  0  0
    0.8868   -1.3898    0.0112 C   0  0  0  0  0  0  0  0  0  0  0  0
   -0.4890   -1.5305   -0.0353 C   0  0  0  0  0  0  0  0  0  0  0  0
   -2.7575    4.8128   -0.0976 H   0  0  0  0  0  0  0  0  0  0  0  0
    1.1928    2.0373    0.0237 H   0  0  0  0  0  0  0  0  0  0  0  0
    2.5630   -0.0279    0.0692 H   0  0  0  0  0  0  0  0  0  0  0  0
    1.5129   -2.2752    0.0319 H   0  0  0  0  0  0  0  0  0  0  0  0
   -0.9757   -2.5015   -0.0523 H   0  0  0  0  0  0  0  0  0  0  0  0
  1  4  2  0  0  0  0
  1  8  1  0  0  0  0
  2  1  1  0  0  0  0
  3  2  1  0  0  0  0
  4  5  1  0  0  0  0
  5 10  1  0  0  0  0
  5  6  2  0  0  0  0
  6 11  1  0  0  0  0
  7 12  1  0  0  0  0
  7  6  1  0  0  0  0
  8  7  2  0  0  0  0
 13  8  1  0  0  0  0
M  RAD  4   2   2   3   3   4   2   9   2
M  END
