Coordinates from ORCA-job PhN2+_B3LYPG-6-31G_dp-d09-49-n800
 OpenBabel11261919563D

 13 12  0  0  0  0  0  0  0  0999 V2000
   -1.2505   -0.2936   -0.0598 C   0  0  0  0  0  0  0  0  0  0  0  0
   -2.6262   -0.3604   -0.1056 N   0  0  0  0  0  0  0  0  0  0  0  0
   -3.7393   -0.4121   -0.1425 N   0  0  0  0  0  0  0  0  0  0  0  0
   -0.6376    0.9551   -0.0382 C   0  0  0  0  0  0  0  0  0  0  0  0
    0.7236    1.0798    0.0076 C   0  0  0  0  0  0  0  0  0  0  0  0
    1.4827   -0.1106    0.0323 C   0  0  0  0  0  0  0  0  0  0  0  0
    0.8740   -1.3778    0.0106 C   0  0  0  0  0  0  0  0  0  0  0  0
   -0.5036   -1.5017   -0.0358 C   0  0  0  0  0  0  0  0  0  0  0  0
   -2.7475    4.5271   -0.0987 H   0  0  0  0  0  0  0  0  0  0  0  0
    1.2217    2.0458    0.0251 H   0  0  0  0  0  0  0  0  0  0  0  0
    2.5670   -0.0371    0.0692 H   0  0  0  0  0  0  0  0  0  0  0  0
    1.4890   -2.2710    0.0307 H   0  0  0  0  0  0  0  0  0  0  0  0
   -1.0020   -2.4667   -0.0533 H   0  0  0  0  0  0  0  0  0  0  0  0
  1  4  2  0  0  0  0
  1  8  1  0  0  0  0
  2  1  1  0  0  0  0
  3  2  1  0  0  0  0
  4  5  1  0  0  0  0
  5 10  1  0  0  0  0
  5  6  2  0  0  0  0
  6 11  1  0  0  0  0
  7 12  1  0  0  0  0
  7  6  1  0  0  0  0
  8  7  2  0  0  0  0
 13  8  1  0  0  0  0
M  RAD  4   2   2   3   3   4   2   9   2
M  END
