Coordinates from ORCA-job PhN2+_B3LYPG-6-31G_dp-d09-49-n800
 OpenBabel11261919563D

 13 12  0  0  0  0  0  0  0  0999 V2000
   -1.3206   -0.1377   -0.0612 C   0  0  0  0  0  0  0  0  0  0  0  0
   -2.6915   -0.1811   -0.1065 N   0  0  0  0  0  0  0  0  0  0  0  0
   -3.8050   -0.2181   -0.1432 N   0  0  0  0  0  0  0  0  0  0  0  0
   -0.6839    1.1060   -0.0383 C   0  0  0  0  0  0  0  0  0  0  0  0
    0.6819    1.2074    0.0074 C   0  0  0  0  0  0  0  0  0  0  0  0
    1.4191    0.0070    0.0303 C   0  0  0  0  0  0  0  0  0  0  0  0
    0.7917   -1.2498    0.0074 C   0  0  0  0  0  0  0  0  0  0  0  0
   -0.5897   -1.3506   -0.0387 C   0  0  0  0  0  0  0  0  0  0  0  0
   -1.9258    2.8257   -0.0768 H   0  0  0  0  0  0  0  0  0  0  0  0
    1.1816    2.1694    0.0254 H   0  0  0  0  0  0  0  0  0  0  0  0
    2.5037    0.0605    0.0669 H   0  0  0  0  0  0  0  0  0  0  0  0
    1.3906   -2.1536    0.0261 H   0  0  0  0  0  0  0  0  0  0  0  0
   -1.1004   -2.3080   -0.0571 H   0  0  0  0  0  0  0  0  0  0  0  0
  1  8  2  0  0  0  0
  1  4  1  0  0  0  0
  2  1  1  0  0  0  0
  3  2  1  0  0  0  0
  4  5  2  0  0  0  0
  5 10  1  0  0  0  0
  5  6  1  0  0  0  0
  6 11  1  0  0  0  0
  7 12  1  0  0  0  0
  7  6  2  0  0  0  0
  8  7  1  0  0  0  0
 13  8  1  0  0  0  0
M  RAD  4   2   2   3   3   4   2   9   2
M  END
