Coordinates from ORCA-job PhN2+_B3LYPG-6-31G_dp-d09-49-n800
 OpenBabel11261919563D

 13 12  0  0  0  0  0  0  0  0999 V2000
   -1.2947   -0.1683   -0.0601 C   0  0  0  0  0  0  0  0  0  0  0  0
   -2.6672   -0.2019   -0.1052 N   0  0  0  0  0  0  0  0  0  0  0  0
   -3.7807   -0.2307   -0.1434 N   0  0  0  0  0  0  0  0  0  0  0  0
   -0.6453    1.0640   -0.0368 C   0  0  0  0  0  0  0  0  0  0  0  0
    0.7157    1.1717    0.0084 C   0  0  0  0  0  0  0  0  0  0  0  0
    1.4477   -0.0350    0.0310 C   0  0  0  0  0  0  0  0  0  0  0  0
    0.8136   -1.2889    0.0081 C   0  0  0  0  0  0  0  0  0  0  0  0
   -0.5676   -1.3861   -0.0379 C   0  0  0  0  0  0  0  0  0  0  0  0
   -2.2524    3.2421   -0.0869 H   0  0  0  0  0  0  0  0  0  0  0  0
    1.2225    2.1311    0.0266 H   0  0  0  0  0  0  0  0  0  0  0  0
    2.5329    0.0154    0.0675 H   0  0  0  0  0  0  0  0  0  0  0  0
    1.4099   -2.1945    0.0266 H   0  0  0  0  0  0  0  0  0  0  0  0
   -1.0827   -2.3417   -0.0563 H   0  0  0  0  0  0  0  0  0  0  0  0
  1  8  2  0  0  0  0
  1  4  1  0  0  0  0
  2  1  1  0  0  0  0
  3  2  1  0  0  0  0
  4  5  2  0  0  0  0
  5 10  1  0  0  0  0
  5  6  1  0  0  0  0
  6 11  1  0  0  0  0
  7 12  1  0  0  0  0
  7  6  2  0  0  0  0
  8  7  1  0  0  0  0
 13  8  1  0  0  0  0
M  RAD  4   2   2   3   3   4   2   9   2
M  END
