Coordinates from ORCA-job PhN2+_B3LYPG-6-31G_dp-d09-49-n800
 OpenBabel11261919563D

 13 12  0  0  0  0  0  0  0  0999 V2000
   -1.2531   -0.3999   -0.0605 C   0  0  0  0  0  0  0  0  0  0  0  0
   -2.6264   -0.5178   -0.1062 N   0  0  0  0  0  0  0  0  0  0  0  0
   -3.7372   -0.6076   -0.1429 N   0  0  0  0  0  0  0  0  0  0  0  0
   -0.6923    0.8729   -0.0407 C   0  0  0  0  0  0  0  0  0  0  0  0
    0.6650    1.0447    0.0053 C   0  0  0  0  0  0  0  0  0  0  0  0
    1.4688   -0.1155    0.0319 C   0  0  0  0  0  0  0  0  0  0  0  0
    0.9083   -1.4051    0.0119 C   0  0  0  0  0  0  0  0  0  0  0  0
   -0.4634   -1.5805   -0.0347 C   0  0  0  0  0  0  0  0  0  0  0  0
   -2.7274    5.2969   -0.0955 H   0  0  0  0  0  0  0  0  0  0  0  0
    1.1285    2.0280    0.0215 H   0  0  0  0  0  0  0  0  0  0  0  0
    2.5496   -0.0013    0.0691 H   0  0  0  0  0  0  0  0  0  0  0  0
    1.5566   -2.2744    0.0335 H   0  0  0  0  0  0  0  0  0  0  0  0
   -0.9255   -2.5634   -0.0509 H   0  0  0  0  0  0  0  0  0  0  0  0
  1  4  2  0  0  0  0
  1  8  1  0  0  0  0
  2  1  1  0  0  0  0
  3  2  1  0  0  0  0
  4  5  1  0  0  0  0
  5 10  1  0  0  0  0
  5  6  2  0  0  0  0
  6 11  1  0  0  0  0
  7  6  1  0  0  0  0
  7 12  1  0  0  0  0
  8  7  2  0  0  0  0
 13  8  1  0  0  0  0
M  RAD  4   2   2   3   3   4   2   9   2
M  END
