Coordinates from ORCA-job PhN2+_B3LYPG-6-31G_dp-d09-49-n800
 OpenBabel11261919563D

 13 12  0  0  0  0  0  0  0  0999 V2000
   -1.3242   -0.1327   -0.0613 C   0  0  0  0  0  0  0  0  0  0  0  0
   -2.6950   -0.1785   -0.1066 N   0  0  0  0  0  0  0  0  0  0  0  0
   -3.8085   -0.2174   -0.1433 N   0  0  0  0  0  0  0  0  0  0  0  0
   -0.6906    1.1137   -0.0385 C   0  0  0  0  0  0  0  0  0  0  0  0
    0.6765    1.2124    0.0072 C   0  0  0  0  0  0  0  0  0  0  0  0
    1.4147    0.0133    0.0301 C   0  0  0  0  0  0  0  0  0  0  0  0
    0.7884   -1.2439    0.0073 C   0  0  0  0  0  0  0  0  0  0  0  0
   -0.5930   -1.3450   -0.0388 C   0  0  0  0  0  0  0  0  0  0  0  0
   -1.8757    2.7632   -0.0752 H   0  0  0  0  0  0  0  0  0  0  0  0
    1.1755    2.1747    0.0252 H   0  0  0  0  0  0  0  0  0  0  0  0
    2.4992    0.0673    0.0667 H   0  0  0  0  0  0  0  0  0  0  0  0
    1.3875   -2.1475    0.0260 H   0  0  0  0  0  0  0  0  0  0  0  0
   -1.1033   -2.3026   -0.0572 H   0  0  0  0  0  0  0  0  0  0  0  0
  1  8  2  0  0  0  0
  1  4  1  0  0  0  0
  2  1  1  0  0  0  0
  3  2  1  0  0  0  0
  4  5  2  0  0  0  0
  5 10  1  0  0  0  0
  5  6  1  0  0  0  0
  6 11  1  0  0  0  0
  7 12  1  0  0  0  0
  7  6  2  0  0  0  0
  8  7  1  0  0  0  0
 13  8  1  0  0  0  0
M  RAD  4   2   2   3   3   4   2   9   2
M  END
