Coordinates from ORCA-job PhN2+_B3LYPG-6-31G_dp-d09-49-n800
 OpenBabel11261919553D

 13 13  0  0  0  0  0  0  0  0999 V2000
   -1.3506   -0.0836   -0.0619 C   0  0  0  0  0  0  0  0  0  0  0  0
   -2.7229   -0.1556   -0.1072 N   0  0  0  0  0  0  0  0  0  0  0  0
   -3.8362   -0.2140   -0.1449 N   0  0  0  0  0  0  0  0  0  0  0  0
   -0.7531    1.1928   -0.0402 C   0  0  0  0  0  0  0  0  0  0  0  0
    0.6292    1.2523    0.0057 C   0  0  0  0  0  0  0  0  0  0  0  0
    1.3787    0.0660    0.0289 C   0  0  0  0  0  0  0  0  0  0  0  0
    0.7603   -1.1935    0.0064 C   0  0  0  0  0  0  0  0  0  0  0  0
   -0.6216   -1.2927   -0.0395 C   0  0  0  0  0  0  0  0  0  0  0  0
   -1.4507    2.2122   -0.0618 H   0  0  0  0  0  0  0  0  0  0  0  0
    1.1267    2.2155    0.0237 H   0  0  0  0  0  0  0  0  0  0  0  0
    2.4624    0.1248    0.0653 H   0  0  0  0  0  0  0  0  0  0  0  0
    1.3598   -2.0969    0.0250 H   0  0  0  0  0  0  0  0  0  0  0  0
   -1.1306   -2.2502   -0.0577 H   0  0  0  0  0  0  0  0  0  0  0  0
  1  4  2  0  0  0  0
  1  8  1  0  0  0  0
  2  1  1  0  0  0  0
  3  2  1  0  0  0  0
  4  5  1  0  0  0  0
  5 10  1  0  0  0  0
  5  6  2  0  0  0  0
  6 11  1  0  0  0  0
  7 12  1  0  0  0  0
  7  6  1  0  0  0  0
  8  7  2  0  0  0  0
  9  4  1  0  0  0  0
 13  8  1  0  0  0  0
M  RAD  2   2   2   3   3
M  END
