Coordinates from ORCA-job PhN2+_B3LYPG-6-31G_dp-d09-49-n800
 OpenBabel11261919563D

 13 12  0  0  0  0  0  0  0  0999 V2000
   -1.2663   -0.2129   -0.0596 C   0  0  0  0  0  0  0  0  0  0  0  0
   -2.6409   -0.2511   -0.1052 N   0  0  0  0  0  0  0  0  0  0  0  0
   -3.7546   -0.2831   -0.1420 N   0  0  0  0  0  0  0  0  0  0  0  0
   -0.6219    1.0203   -0.0366 C   0  0  0  0  0  0  0  0  0  0  0  0
    0.7391    1.1261    0.0090 C   0  0  0  0  0  0  0  0  0  0  0  0
    1.4739   -0.0800    0.0320 C   0  0  0  0  0  0  0  0  0  0  0  0
    0.8407   -1.3345    0.0091 C   0  0  0  0  0  0  0  0  0  0  0  0
   -0.5396   -1.4327   -0.0371 C   0  0  0  0  0  0  0  0  0  0  0  0
   -2.5719    3.7965   -0.0963 H   0  0  0  0  0  0  0  0  0  0  0  0
    1.2509    2.0841    0.0273 H   0  0  0  0  0  0  0  0  0  0  0  0
    2.5593   -0.0275    0.0687 H   0  0  0  0  0  0  0  0  0  0  0  0
    1.4382   -2.2395    0.0279 H   0  0  0  0  0  0  0  0  0  0  0  0
   -1.0553   -2.3884   -0.0555 H   0  0  0  0  0  0  0  0  0  0  0  0
  1  8  2  0  0  0  0
  1  4  1  0  0  0  0
  2  1  1  0  0  0  0
  3  2  1  0  0  0  0
  4  5  2  0  0  0  0
  5 10  1  0  0  0  0
  5  6  1  0  0  0  0
  6 11  1  0  0  0  0
  7 12  1  0  0  0  0
  7  6  2  0  0  0  0
  8  7  1  0  0  0  0
 13  8  1  0  0  0  0
M  RAD  4   2   2   3   3   4   2   9   2
M  END
