Coordinates from ORCA-job PhN2+_B3LYPG-6-31G_dp-d09-49-n800
 OpenBabel11261919563D

 13 12  0  0  0  0  0  0  0  0999 V2000
   -1.3353   -0.1148   -0.0616 C   0  0  0  0  0  0  0  0  0  0  0  0
   -2.7061   -0.1701   -0.1069 N   0  0  0  0  0  0  0  0  0  0  0  0
   -3.8196   -0.2162   -0.1437 N   0  0  0  0  0  0  0  0  0  0  0  0
   -0.7144    1.1422   -0.0392 C   0  0  0  0  0  0  0  0  0  0  0  0
    0.6582    1.2285    0.0067 C   0  0  0  0  0  0  0  0  0  0  0  0
    1.4002    0.0342    0.0297 C   0  0  0  0  0  0  0  0  0  0  0  0
    0.7773   -1.2243    0.0069 C   0  0  0  0  0  0  0  0  0  0  0  0
   -0.6042   -1.3255   -0.0392 C   0  0  0  0  0  0  0  0  0  0  0  0
   -1.7083    2.5530   -0.0701 H   0  0  0  0  0  0  0  0  0  0  0  0
    1.1557    2.1912    0.0247 H   0  0  0  0  0  0  0  0  0  0  0  0
    2.4844    0.0897    0.0663 H   0  0  0  0  0  0  0  0  0  0  0  0
    1.3770   -2.1275    0.0256 H   0  0  0  0  0  0  0  0  0  0  0  0
   -1.1133   -2.2833   -0.0575 H   0  0  0  0  0  0  0  0  0  0  0  0
  1  4  2  0  0  0  0
  1  8  1  0  0  0  0
  2  1  1  0  0  0  0
  3  2  1  0  0  0  0
  4  5  1  0  0  0  0
  5 10  1  0  0  0  0
  5  6  2  0  0  0  0
  6 11  1  0  0  0  0
  7 12  1  0  0  0  0
  7  6  1  0  0  0  0
  8  7  2  0  0  0  0
 13  8  1  0  0  0  0
M  RAD  4   2   2   3   3   4   2   9   2
M  END
