Coordinates from ORCA-job PhN2+_B3LYPG-6-31G_dp-d09-49-n800
 OpenBabel11261919563D

 13 12  0  0  0  0  0  0  0  0999 V2000
   -1.3180   -0.1412   -0.0611 C   0  0  0  0  0  0  0  0  0  0  0  0
   -2.6890   -0.1831   -0.1064 N   0  0  0  0  0  0  0  0  0  0  0  0
   -3.8025   -0.2189   -0.1431 N   0  0  0  0  0  0  0  0  0  0  0  0
   -0.6792    1.1007   -0.0381 C   0  0  0  0  0  0  0  0  0  0  0  0
    0.6858    1.2037    0.0075 C   0  0  0  0  0  0  0  0  0  0  0  0
    1.4223    0.0024    0.0304 C   0  0  0  0  0  0  0  0  0  0  0  0
    0.7941   -1.2540    0.0075 C   0  0  0  0  0  0  0  0  0  0  0  0
   -0.5873   -1.3547   -0.0387 C   0  0  0  0  0  0  0  0  0  0  0  0
   -1.9621    2.8710   -0.0780 H   0  0  0  0  0  0  0  0  0  0  0  0
    1.1860    2.1655    0.0256 H   0  0  0  0  0  0  0  0  0  0  0  0
    2.5069    0.0556    0.0670 H   0  0  0  0  0  0  0  0  0  0  0  0
    1.3927   -2.1580    0.0261 H   0  0  0  0  0  0  0  0  0  0  0  0
   -1.0984   -2.3119   -0.0571 H   0  0  0  0  0  0  0  0  0  0  0  0
  1  8  2  0  0  0  0
  1  4  1  0  0  0  0
  2  1  1  0  0  0  0
  3  2  1  0  0  0  0
  4  5  2  0  0  0  0
  5 10  1  0  0  0  0
  5  6  1  0  0  0  0
  6 11  1  0  0  0  0
  7 12  1  0  0  0  0
  7  6  2  0  0  0  0
  8  7  1  0  0  0  0
 13  8  1  0  0  0  0
M  RAD  4   2   2   3   3   4   2   9   2
M  END
