Coordinates from ORCA-job PhN2+_B3LYPG-6-31G_dp-d09-49-n800
 OpenBabel11261919553D

 13 13  0  0  0  0  0  0  0  0999 V2000
   -1.3508   -0.0833   -0.0619 C   0  0  0  0  0  0  0  0  0  0  0  0
   -2.7230   -0.1554   -0.1072 N   0  0  0  0  0  0  0  0  0  0  0  0
   -3.8363   -0.2139   -0.1450 N   0  0  0  0  0  0  0  0  0  0  0  0
   -0.7535    1.1933   -0.0402 C   0  0  0  0  0  0  0  0  0  0  0  0
    0.6289    1.2525    0.0057 C   0  0  0  0  0  0  0  0  0  0  0  0
    1.3785    0.0663    0.0289 C   0  0  0  0  0  0  0  0  0  0  0  0
    0.7601   -1.1932    0.0064 C   0  0  0  0  0  0  0  0  0  0  0  0
   -0.6218   -1.2923   -0.0395 C   0  0  0  0  0  0  0  0  0  0  0  0
   -1.4481    2.2086   -0.0617 H   0  0  0  0  0  0  0  0  0  0  0  0
    1.1265    2.2158    0.0237 H   0  0  0  0  0  0  0  0  0  0  0  0
    2.4622    0.1251    0.0653 H   0  0  0  0  0  0  0  0  0  0  0  0
    1.3596   -2.0966    0.0250 H   0  0  0  0  0  0  0  0  0  0  0  0
   -1.1307   -2.2498   -0.0577 H   0  0  0  0  0  0  0  0  0  0  0  0
  1  4  2  0  0  0  0
  1  8  1  0  0  0  0
  2  1  1  0  0  0  0
  3  2  1  0  0  0  0
  4  5  1  0  0  0  0
  5 10  1  0  0  0  0
  5  6  2  0  0  0  0
  6 11  1  0  0  0  0
  7 12  1  0  0  0  0
  7  6  1  0  0  0  0
  8  7  2  0  0  0  0
  9  4  1  0  0  0  0
 13  8  1  0  0  0  0
M  RAD  2   2   2   3   3
M  END
