Coordinates from ORCA-job PhN2+_B3LYPG-6-31G_dp-d09-49-n800
 OpenBabel11261919563D

 13 12  0  0  0  0  0  0  0  0999 V2000
   -1.2548   -0.2530   -0.0595 C   0  0  0  0  0  0  0  0  0  0  0  0
   -2.6304   -0.3038   -0.1053 N   0  0  0  0  0  0  0  0  0  0  0  0
   -3.7439   -0.3445   -0.1422 N   0  0  0  0  0  0  0  0  0  0  0  0
   -0.6246    0.9872   -0.0372 C   0  0  0  0  0  0  0  0  0  0  0  0
    0.7368    1.0992    0.0084 C   0  0  0  0  0  0  0  0  0  0  0  0
    1.4819   -0.1003    0.0322 C   0  0  0  0  0  0  0  0  0  0  0  0
    0.8587   -1.3602    0.0099 C   0  0  0  0  0  0  0  0  0  0  0  0
   -0.5204   -1.4686   -0.0364 C   0  0  0  0  0  0  0  0  0  0  0  0
   -2.6967    4.1882   -0.0986 H   0  0  0  0  0  0  0  0  0  0  0  0
    1.2442    2.0602    0.0264 H   0  0  0  0  0  0  0  0  0  0  0  0
    2.5669   -0.0391    0.0690 H   0  0  0  0  0  0  0  0  0  0  0  0
    1.4634   -2.2604    0.0293 H   0  0  0  0  0  0  0  0  0  0  0  0
   -1.0294   -2.4279   -0.0544 H   0  0  0  0  0  0  0  0  0  0  0  0
  1  4  2  0  0  0  0
  1  8  1  0  0  0  0
  2  1  1  0  0  0  0
  3  2  1  0  0  0  0
  4  5  1  0  0  0  0
  5 10  1  0  0  0  0
  5  6  2  0  0  0  0
  6 11  1  0  0  0  0
  7 12  1  0  0  0  0
  7  6  1  0  0  0  0
  8  7  2  0  0  0  0
 13  8  1  0  0  0  0
M  RAD  4   2   2   3   3   4   2   9   2
M  END
