Coordinates from ORCA-job PhN2+_B3LYPG-6-31G_dp-d09-49-n800
 OpenBabel11261919563D

 13 12  0  0  0  0  0  0  0  0999 V2000
   -1.2754   -0.1950   -0.0598 C   0  0  0  0  0  0  0  0  0  0  0  0
   -2.6492   -0.2294   -0.1053 N   0  0  0  0  0  0  0  0  0  0  0  0
   -3.7629   -0.2588   -0.1420 N   0  0  0  0  0  0  0  0  0  0  0  0
   -0.6266    1.0363   -0.0365 C   0  0  0  0  0  0  0  0  0  0  0  0
    0.7341    1.1421    0.0090 C   0  0  0  0  0  0  0  0  0  0  0  0
    1.4663   -0.0655    0.0318 C   0  0  0  0  0  0  0  0  0  0  0  0
    0.8309   -1.3188    0.0087 C   0  0  0  0  0  0  0  0  0  0  0  0
   -0.5498   -1.4150   -0.0375 C   0  0  0  0  0  0  0  0  0  0  0  0
   -2.4733    3.5910   -0.0938 H   0  0  0  0  0  0  0  0  0  0  0  0
    1.2454    2.1000    0.0274 H   0  0  0  0  0  0  0  0  0  0  0  0
    2.5517   -0.0151    0.0685 H   0  0  0  0  0  0  0  0  0  0  0  0
    1.4268   -2.2248    0.0274 H   0  0  0  0  0  0  0  0  0  0  0  0
   -1.0665   -2.3700   -0.0560 H   0  0  0  0  0  0  0  0  0  0  0  0
  1  8  2  0  0  0  0
  1  4  1  0  0  0  0
  2  1  1  0  0  0  0
  3  2  1  0  0  0  0
  4  5  2  0  0  0  0
  5 10  1  0  0  0  0
  5  6  1  0  0  0  0
  6 11  1  0  0  0  0
  7 12  1  0  0  0  0
  7  6  2  0  0  0  0
  8  7  1  0  0  0  0
 13  8  1  0  0  0  0
M  RAD  4   2   2   3   3   4   2   9   2
M  END
