Coordinates from ORCA-job PhN2+_B3LYPG-6-31G_dp-d09-49-n800
 OpenBabel11261919563D

 13 12  0  0  0  0  0  0  0  0999 V2000
   -1.2596   -0.2325   -0.0595 C   0  0  0  0  0  0  0  0  0  0  0  0
   -2.6348   -0.2765   -0.1052 N   0  0  0  0  0  0  0  0  0  0  0  0
   -3.7484   -0.3126   -0.1421 N   0  0  0  0  0  0  0  0  0  0  0  0
   -0.6216    1.0038   -0.0369 C   0  0  0  0  0  0  0  0  0  0  0  0
    0.7396    1.1118    0.0087 C   0  0  0  0  0  0  0  0  0  0  0  0
    1.4789   -0.0915    0.0321 C   0  0  0  0  0  0  0  0  0  0  0  0
    0.8499   -1.3483    0.0095 C   0  0  0  0  0  0  0  0  0  0  0  0
   -0.5298   -1.4507   -0.0367 C   0  0  0  0  0  0  0  0  0  0  0  0
   -2.6446    3.9972   -0.0977 H   0  0  0  0  0  0  0  0  0  0  0  0
    1.2500    2.0709    0.0269 H   0  0  0  0  0  0  0  0  0  0  0  0
    2.5642   -0.0352    0.0689 H   0  0  0  0  0  0  0  0  0  0  0  0
    1.4505   -2.2513    0.0286 H   0  0  0  0  0  0  0  0  0  0  0  0
   -1.0428   -2.4079   -0.0550 H   0  0  0  0  0  0  0  0  0  0  0  0
  1  4  2  0  0  0  0
  1  8  1  0  0  0  0
  2  1  1  0  0  0  0
  3  2  1  0  0  0  0
  4  5  1  0  0  0  0
  5 10  1  0  0  0  0
  5  6  2  0  0  0  0
  6 11  1  0  0  0  0
  7 12  1  0  0  0  0
  7  6  1  0  0  0  0
  8  7  2  0  0  0  0
 13  8  1  0  0  0  0
M  RAD  4   2   2   3   3   4   2   9   2
M  END
