Coordinates from ORCA-job PhN2+_B3LYPG-6-31G_dp-d09-49-n800
 OpenBabel11261919563D

 13 12  0  0  0  0  0  0  0  0999 V2000
   -1.2528   -0.3967   -0.0603 C   0  0  0  0  0  0  0  0  0  0  0  0
   -2.6263   -0.5131   -0.1061 N   0  0  0  0  0  0  0  0  0  0  0  0
   -3.7371   -0.6017   -0.1432 N   0  0  0  0  0  0  0  0  0  0  0  0
   -0.6906    0.8755   -0.0405 C   0  0  0  0  0  0  0  0  0  0  0  0
    0.6669    1.0454    0.0054 C   0  0  0  0  0  0  0  0  0  0  0  0
    1.4693   -0.1156    0.0319 C   0  0  0  0  0  0  0  0  0  0  0  0
    0.9074   -1.4046    0.0119 C   0  0  0  0  0  0  0  0  0  0  0  0
   -0.4645   -1.5782   -0.0346 C   0  0  0  0  0  0  0  0  0  0  0  0
   -2.7295    5.2757   -0.0957 H   0  0  0  0  0  0  0  0  0  0  0  0
    1.1316    2.0283    0.0216 H   0  0  0  0  0  0  0  0  0  0  0  0
    2.5503   -0.0026    0.0690 H   0  0  0  0  0  0  0  0  0  0  0  0
    1.5547   -2.2746    0.0333 H   0  0  0  0  0  0  0  0  0  0  0  0
   -0.9279   -2.5605   -0.0509 H   0  0  0  0  0  0  0  0  0  0  0  0
  1  4  2  0  0  0  0
  1  8  1  0  0  0  0
  2  1  1  0  0  0  0
  3  2  1  0  0  0  0
  4  5  1  0  0  0  0
  5 10  1  0  0  0  0
  5  6  2  0  0  0  0
  6 11  1  0  0  0  0
  7  6  1  0  0  0  0
  7 12  1  0  0  0  0
  8  7  2  0  0  0  0
 13  8  1  0  0  0  0
M  RAD  4   2   2   3   3   4   2   9   2
M  END
