Coordinates from ORCA-job PhN2+_B3LYPG-6-31G_dp-d09-49-n800
 OpenBabel11261919553D

 13 13  0  0  0  0  0  0  0  0999 V2000
   -1.3429   -0.1001   -0.0618 C   0  0  0  0  0  0  0  0  0  0  0  0
   -2.7142   -0.1637   -0.1071 N   0  0  0  0  0  0  0  0  0  0  0  0
   -3.8277   -0.2160   -0.1441 N   0  0  0  0  0  0  0  0  0  0  0  0
   -0.7333    1.1664   -0.0397 C   0  0  0  0  0  0  0  0  0  0  0  0
    0.6441    1.2400    0.0062 C   0  0  0  0  0  0  0  0  0  0  0  0
    1.3896    0.0496    0.0293 C   0  0  0  0  0  0  0  0  0  0  0  0
    0.7690   -1.2095    0.0067 C   0  0  0  0  0  0  0  0  0  0  0  0
   -0.6126   -1.3099   -0.0394 C   0  0  0  0  0  0  0  0  0  0  0  0
   -1.5828    2.3911   -0.0662 H   0  0  0  0  0  0  0  0  0  0  0  0
    1.1415    2.2029    0.0242 H   0  0  0  0  0  0  0  0  0  0  0  0
    2.4735    0.1065    0.0659 H   0  0  0  0  0  0  0  0  0  0  0  0
    1.3687   -2.1127    0.0253 H   0  0  0  0  0  0  0  0  0  0  0  0
   -1.1215   -2.2676   -0.0577 H   0  0  0  0  0  0  0  0  0  0  0  0
  1  4  2  0  0  0  0
  1  8  1  0  0  0  0
  2  1  1  0  0  0  0
  3  2  1  0  0  0  0
  4  5  1  0  0  0  0
  5 10  1  0  0  0  0
  5  6  2  0  0  0  0
  6 11  1  0  0  0  0
  7 12  1  0  0  0  0
  7  6  1  0  0  0  0
  8  7  2  0  0  0  0
  9  4  1  0  0  0  0
 13  8  1  0  0  0  0
M  RAD  2   2   2   3   3
M  END
