Coordinates from ORCA-job PhN2+_B3LYPG-6-31G_dp-d09-49-n800
 OpenBabel11261919563D

 13 12  0  0  0  0  0  0  0  0999 V2000
   -1.2708   -0.2031   -0.0597 C   0  0  0  0  0  0  0  0  0  0  0  0
   -2.6450   -0.2390   -0.1053 N   0  0  0  0  0  0  0  0  0  0  0  0
   -3.7587   -0.2694   -0.1419 N   0  0  0  0  0  0  0  0  0  0  0  0
   -0.6237    1.0289   -0.0365 C   0  0  0  0  0  0  0  0  0  0  0  0
    0.7370    1.1344    0.0090 C   0  0  0  0  0  0  0  0  0  0  0  0
    1.4702   -0.0727    0.0319 C   0  0  0  0  0  0  0  0  0  0  0  0
    0.8355   -1.3264    0.0089 C   0  0  0  0  0  0  0  0  0  0  0  0
   -0.5450   -1.4232   -0.0373 C   0  0  0  0  0  0  0  0  0  0  0  0
   -2.5231    3.6875   -0.0951 H   0  0  0  0  0  0  0  0  0  0  0  0
    1.2489    2.0922    0.0274 H   0  0  0  0  0  0  0  0  0  0  0  0
    2.5556   -0.0215    0.0686 H   0  0  0  0  0  0  0  0  0  0  0  0
    1.4320   -2.2321    0.0276 H   0  0  0  0  0  0  0  0  0  0  0  0
   -1.0614   -2.3784   -0.0558 H   0  0  0  0  0  0  0  0  0  0  0  0
  1  8  2  0  0  0  0
  1  4  1  0  0  0  0
  2  1  1  0  0  0  0
  3  2  1  0  0  0  0
  4  5  2  0  0  0  0
  5 10  1  0  0  0  0
  5  6  1  0  0  0  0
  6 11  1  0  0  0  0
  7 12  1  0  0  0  0
  7  6  2  0  0  0  0
  8  7  1  0  0  0  0
 13  8  1  0  0  0  0
M  RAD  4   2   2   3   3   4   2   9   2
M  END
