Coordinates from ORCA-job PhN2+_B3LYPG-6-31G_dp-d09-49-n800
 OpenBabel11261919563D

 13 12  0  0  0  0  0  0  0  0999 V2000
   -1.2783   -0.1905   -0.0598 C   0  0  0  0  0  0  0  0  0  0  0  0
   -2.6519   -0.2245   -0.1051 N   0  0  0  0  0  0  0  0  0  0  0  0
   -3.7656   -0.2536   -0.1425 N   0  0  0  0  0  0  0  0  0  0  0  0
   -0.6290    1.0408   -0.0365 C   0  0  0  0  0  0  0  0  0  0  0  0
    0.7316    1.1468    0.0089 C   0  0  0  0  0  0  0  0  0  0  0  0
    1.4636   -0.0608    0.0316 C   0  0  0  0  0  0  0  0  0  0  0  0
    0.8282   -1.3141    0.0086 C   0  0  0  0  0  0  0  0  0  0  0  0
   -0.5527   -1.4102   -0.0375 C   0  0  0  0  0  0  0  0  0  0  0  0
   -2.4405    3.5344   -0.0928 H   0  0  0  0  0  0  0  0  0  0  0  0
    1.2425    2.1048    0.0273 H   0  0  0  0  0  0  0  0  0  0  0  0
    2.5489   -0.0106    0.0683 H   0  0  0  0  0  0  0  0  0  0  0  0
    1.4240   -2.2202    0.0272 H   0  0  0  0  0  0  0  0  0  0  0  0
   -1.0693   -2.3653   -0.0560 H   0  0  0  0  0  0  0  0  0  0  0  0
  1  8  2  0  0  0  0
  1  4  1  0  0  0  0
  2  1  1  0  0  0  0
  3  2  1  0  0  0  0
  4  5  2  0  0  0  0
  5 10  1  0  0  0  0
  5  6  1  0  0  0  0
  6 11  1  0  0  0  0
  7 12  1  0  0  0  0
  7  6  2  0  0  0  0
  8  7  1  0  0  0  0
 13  8  1  0  0  0  0
M  RAD  4   2   2   3   3   4   2   9   2
M  END
