Coordinates from ORCA-job PhN2+_B3LYPG-6-31G_dp-d09-49-n800
 OpenBabel11261919563D

 13 12  0  0  0  0  0  0  0  0999 V2000
   -1.2790   -0.1895   -0.0599 C   0  0  0  0  0  0  0  0  0  0  0  0
   -2.6526   -0.2233   -0.1053 N   0  0  0  0  0  0  0  0  0  0  0  0
   -3.7662   -0.2525   -0.1420 N   0  0  0  0  0  0  0  0  0  0  0  0
   -0.6294    1.0416   -0.0366 C   0  0  0  0  0  0  0  0  0  0  0  0
    0.7312    1.1479    0.0089 C   0  0  0  0  0  0  0  0  0  0  0  0
    1.4630   -0.0598    0.0317 C   0  0  0  0  0  0  0  0  0  0  0  0
    0.8275   -1.3131    0.0085 C   0  0  0  0  0  0  0  0  0  0  0  0
   -0.5533   -1.4092   -0.0376 C   0  0  0  0  0  0  0  0  0  0  0  0
   -2.4334    3.5221   -0.0928 H   0  0  0  0  0  0  0  0  0  0  0  0
    1.2418    2.1060    0.0273 H   0  0  0  0  0  0  0  0  0  0  0  0
    2.5484   -0.0097    0.0684 H   0  0  0  0  0  0  0  0  0  0  0  0
    1.4233   -2.2191    0.0272 H   0  0  0  0  0  0  0  0  0  0  0  0
   -1.0698   -2.3643   -0.0562 H   0  0  0  0  0  0  0  0  0  0  0  0
  1  8  2  0  0  0  0
  1  4  1  0  0  0  0
  2  1  1  0  0  0  0
  3  2  1  0  0  0  0
  4  5  2  0  0  0  0
  5 10  1  0  0  0  0
  5  6  1  0  0  0  0
  6 11  1  0  0  0  0
  7 12  1  0  0  0  0
  7  6  2  0  0  0  0
  8  7  1  0  0  0  0
 13  8  1  0  0  0  0
M  RAD  4   2   2   3   3   4   2   9   2
M  END
