Coordinates from ORCA-job PhN2+_B3LYPG-6-31G_dp-d09-49-n800
 OpenBabel11261919563D

 13 12  0  0  0  0  0  0  0  0999 V2000
   -1.3320   -0.1205   -0.0615 C   0  0  0  0  0  0  0  0  0  0  0  0
   -2.7027   -0.1727   -0.1068 N   0  0  0  0  0  0  0  0  0  0  0  0
   -3.8162   -0.2164   -0.1436 N   0  0  0  0  0  0  0  0  0  0  0  0
   -0.7068    1.1330   -0.0390 C   0  0  0  0  0  0  0  0  0  0  0  0
    0.6639    1.2237    0.0068 C   0  0  0  0  0  0  0  0  0  0  0  0
    1.4047    0.0278    0.0298 C   0  0  0  0  0  0  0  0  0  0  0  0
    0.7807   -1.2304    0.0071 C   0  0  0  0  0  0  0  0  0  0  0  0
   -0.6007   -1.3316   -0.0391 C   0  0  0  0  0  0  0  0  0  0  0  0
   -1.7600    2.6183   -0.0716 H   0  0  0  0  0  0  0  0  0  0  0  0
    1.1617    2.1863    0.0248 H   0  0  0  0  0  0  0  0  0  0  0  0
    2.4889    0.0828    0.0664 H   0  0  0  0  0  0  0  0  0  0  0  0
    1.3803   -2.1337    0.0258 H   0  0  0  0  0  0  0  0  0  0  0  0
   -1.1101   -2.2894   -0.0574 H   0  0  0  0  0  0  0  0  0  0  0  0
  1  8  2  0  0  0  0
  1  4  1  0  0  0  0
  2  1  1  0  0  0  0
  3  2  1  0  0  0  0
  4  5  2  0  0  0  0
  5 10  1  0  0  0  0
  5  6  1  0  0  0  0
  6 11  1  0  0  0  0
  7 12  1  0  0  0  0
  7  6  2  0  0  0  0
  8  7  1  0  0  0  0
 13  8  1  0  0  0  0
M  RAD  4   2   2   3   3   4   2   9   2
M  END
